*SPEF "ieee 1481-1999"
*DESIGN "digital_pll_controller"
*DATE "15:11:02 Tuesday September 23, 2025"
*VENDOR "The OpenROAD Project"
*PROGRAM "OpenROAD"
*VERSION "9f7714859944860f802c7c961ba83ab4ae83849f"
*DESIGN_FLOW "NAME_SCOPE LOCAL" "PIN_CAP NONE"
*DIVIDER /
*DELIMITER :
*BUS_DELIMITER []
*T_UNIT 1 NS
*C_UNIT 1 PF
*R_UNIT 1 OHM
*L_UNIT 1 HENRY

*NAME_MAP
*1 _000_
*2 _001_
*3 _002_
*4 _003_
*5 _004_
*6 _005_
*7 _006_
*8 _007_
*9 _008_
*10 _009_
*11 _010_
*12 _011_
*13 _012_
*14 _013_
*15 _014_
*16 _015_
*17 _016_
*18 _017_
*19 _018_
*20 _019_
*21 _020_
*22 _021_
*23 _022_
*24 _023_
*25 _024_
*26 _025_
*27 _026_
*28 _027_
*29 _028_
*30 _029_
*31 _030_
*32 _031_
*33 _032_
*34 _033_
*35 _034_
*36 _035_
*37 _036_
*38 _037_
*39 _038_
*40 _039_
*41 _040_
*42 _041_
*43 _042_
*44 _043_
*45 _044_
*46 _045_
*47 _046_
*48 _047_
*49 _048_
*50 _049_
*51 _050_
*52 _051_
*53 _052_
*54 _053_
*55 _054_
*56 _055_
*57 _056_
*58 _057_
*59 _058_
*60 _059_
*61 _060_
*62 _061_
*63 _062_
*64 _063_
*65 _064_
*66 _065_
*67 _066_
*68 _067_
*69 _068_
*70 _069_
*71 _070_
*72 _071_
*73 _072_
*74 _073_
*75 _074_
*76 _075_
*77 _076_
*78 _077_
*79 _078_
*80 _079_
*81 _080_
*82 _081_
*83 _082_
*84 _083_
*85 _084_
*86 _085_
*87 _086_
*88 _087_
*89 _088_
*90 _089_
*91 net4
*92 _091_
*93 _092_
*94 _093_
*95 _094_
*96 _095_
*97 _096_
*98 _097_
*99 _098_
*100 _099_
*101 _100_
*102 _101_
*103 _102_
*104 _103_
*105 _104_
*106 _105_
*107 _106_
*108 _107_
*109 _108_
*110 _109_
*111 _110_
*112 _111_
*113 _112_
*114 _113_
*115 _114_
*116 _115_
*117 _116_
*118 _117_
*119 _118_
*120 _119_
*121 _120_
*122 _121_
*123 _122_
*124 _123_
*125 _124_
*126 net3
*127 _126_
*128 _127_
*129 _128_
*130 _129_
*131 _130_
*132 _131_
*133 _132_
*134 net2
*135 _134_
*136 _135_
*137 _136_
*138 _137_
*139 _138_
*140 _139_
*141 _140_
*142 _141_
*143 _142_
*144 _143_
*145 _144_
*146 _145_
*147 _146_
*148 _147_
*149 _148_
*150 _149_
*151 _150_
*152 _151_
*153 _152_
*154 clock
*155 count0\[0\]
*156 count0\[1\]
*157 count0\[2\]
*158 count0\[3\]
*159 count0\[4\]
*160 count1\[0\]
*161 count1\[1\]
*162 count1\[2\]
*163 count1\[3\]
*164 count1\[4\]
*165 dco
*166 div[0]
*167 div[1]
*168 div[2]
*169 div[3]
*170 div[4]
*171 enable
*172 osc
*173 oscbuf\[0\]
*174 oscbuf\[1\]
*175 oscbuf\[2\]
*176 prep\[0\]
*177 prep\[1\]
*178 prep\[2\]
*179 reset
*180 tint\[0\]
*181 tint\[1\]
*182 tint\[2\]
*183 tint\[3\]
*184 net1
*185 net10
*186 net11
*187 net12
*188 net13
*189 net14
*190 net15
*191 net16
*192 net17
*193 net18
*194 net19
*195 net20
*196 net21
*197 net22
*198 net23
*199 net24
*200 net25
*201 net26
*202 net27
*203 net28
*204 net29
*205 net30
*206 net31
*207 net32
*208 net33
*209 net34
*210 net35
*211 tval\[0\]
*212 tval\[1\]
*215 net5
*216 net6
*217 net7
*218 net8
*219 net9
*220 trim[0]
*221 trim[10]
*222 trim[11]
*223 trim[12]
*224 trim[13]
*225 trim[14]
*226 trim[15]
*227 trim[16]
*228 trim[17]
*229 trim[18]
*230 trim[19]
*231 trim[1]
*232 trim[20]
*233 trim[21]
*234 trim[22]
*235 trim[23]
*236 trim[24]
*237 trim[25]
*238 trim[2]
*239 trim[3]
*240 trim[4]
*241 trim[5]
*242 trim[6]
*243 trim[7]
*244 trim[8]
*245 trim[9]
*246 clknet_0_clock
*247 clknet_1_0__leaf_clock
*248 clknet_1_1__leaf_clock
*249 _153_
*250 _154_
*251 _155_
*252 _156_
*253 _157_
*254 _158_
*255 _159_
*256 _160_
*257 _161_
*258 _162_
*259 _163_
*260 _164_
*261 _165_
*262 _166_
*263 _167_
*264 _168_
*265 _169_
*266 _170_
*267 _171_
*268 _172_
*269 _173_
*270 _174_
*271 _175_
*272 _176_
*273 _177_
*274 _178_
*275 _179_
*276 _180_
*277 _181_
*278 _182_
*279 _183_
*280 _184_
*281 _185_
*282 input4
*283 _187_
*284 _188_
*285 _189_
*286 _190_
*287 _191_
*288 _192_
*289 _193_
*290 _194_
*291 _195_
*292 _196_
*293 _197_
*294 _198_
*295 _199_
*296 _200_
*297 _201_
*298 _202_
*299 _203_
*300 _204_
*301 _205_
*302 _206_
*303 _207_
*304 _208_
*305 _209_
*306 _210_
*307 _211_
*308 _212_
*309 _213_
*310 _214_
*311 _215_
*312 _216_
*313 _217_
*314 _218_
*315 _219_
*316 _220_
*317 _221_
*318 _222_
*319 _223_
*320 _224_
*321 _225_
*322 _226_
*323 _227_
*324 _228_
*325 _229_
*326 _230_
*327 _231_
*328 _232_
*329 _233_
*330 input3
*331 _235_
*332 _236_
*333 _237_
*334 _238_
*335 _239_
*336 _240_
*337 _241_
*338 _242_
*339 _243_
*340 _244_
*341 _245_
*342 _246_
*343 _247_
*344 _248_
*345 _249_
*346 _250_
*347 _251_
*348 _252_
*349 _253_
*350 input2
*351 _255_
*352 _256_
*353 _257_
*354 _258_
*355 _259_
*356 _260_
*357 _261_
*358 _262_
*359 _263_
*360 _264_
*361 _265_
*362 _266_
*363 _267_
*364 _268_
*365 _269_
*366 _270_
*367 _271_
*368 _272_
*369 _273_
*370 _274_
*371 _275_
*372 _276_
*373 _277_
*374 _278_
*375 _279_
*376 _280_
*377 _281_
*378 input1
*379 _283_
*380 _284_
*381 _285_
*382 _286_
*383 _287_
*384 _288_
*385 _289_
*386 _290_
*387 _291_
*388 _292_
*389 _293_
*390 _294_
*391 _295_
*392 _296_
*393 _297_
*394 _298_
*395 _299_
*396 _300_
*397 _301_
*398 _302_
*399 _303_
*400 _304_
*401 _305_
*402 _306_
*403 _307_
*404 _308_
*405 _309_
*406 _310_
*407 _311_
*408 _312_
*409 count0\[0\]\$_DFFE_PP0P_
*410 count0\[1\]\$_DFFE_PP0P_
*411 count0\[2\]\$_DFFE_PP0P_
*412 count0\[3\]\$_DFFE_PP0P_
*413 count0\[4\]\$_DFFE_PP0P_
*414 count1\[0\]\$_DFFE_PP0N_
*415 count1\[1\]\$_DFFE_PP0N_
*416 count1\[2\]\$_DFFE_PP0N_
*417 count1\[3\]\$_DFFE_PP0N_
*418 count1\[4\]\$_DFFE_PP0N_
*419 oscbuf\[0\]\$_DFF_PP0_
*420 oscbuf\[1\]\$_DFF_PP0_
*421 oscbuf\[2\]\$_DFF_PP0_
*422 prep\[0\]\$_DFFE_PP0N_
*423 prep\[1\]\$_DFFE_PP0N_
*424 prep\[2\]\$_DFFE_PP0N_
*425 tval\[0\]\$_DFFE_PP0P_
*426 tval\[1\]\$_DFFE_PP0P_
*427 tval\[2\]\$_DFFE_PP0P_
*428 tval\[3\]\$_DFFE_PP0P_
*429 tval\[4\]\$_DFFE_PP0P_
*430 tval\[5\]\$_DFFE_PP0P_
*431 tval\[6\]\$_DFFE_PP0P_
*432 PHY_EDGE_ROW_0_Right_0
*433 PHY_EDGE_ROW_1_Right_1
*434 PHY_EDGE_ROW_2_Right_2
*435 PHY_EDGE_ROW_3_Right_3
*436 PHY_EDGE_ROW_4_Right_4
*437 PHY_EDGE_ROW_5_Right_5
*438 PHY_EDGE_ROW_6_Right_6
*439 PHY_EDGE_ROW_7_Right_7
*440 PHY_EDGE_ROW_8_Right_8
*441 PHY_EDGE_ROW_9_Right_9
*442 PHY_EDGE_ROW_10_Right_10
*443 PHY_EDGE_ROW_11_Right_11
*444 PHY_EDGE_ROW_12_Right_12
*445 PHY_EDGE_ROW_13_Right_13
*446 PHY_EDGE_ROW_14_Right_14
*447 PHY_EDGE_ROW_15_Right_15
*448 PHY_EDGE_ROW_16_Right_16
*449 PHY_EDGE_ROW_17_Right_17
*450 PHY_EDGE_ROW_18_Right_18
*451 PHY_EDGE_ROW_19_Right_19
*452 PHY_EDGE_ROW_20_Right_20
*453 PHY_EDGE_ROW_21_Right_21
*454 PHY_EDGE_ROW_22_Right_22
*455 PHY_EDGE_ROW_23_Right_23
*456 PHY_EDGE_ROW_24_Right_24
*457 PHY_EDGE_ROW_25_Right_25
*458 PHY_EDGE_ROW_26_Right_26
*459 PHY_EDGE_ROW_27_Right_27
*460 PHY_EDGE_ROW_28_Right_28
*461 PHY_EDGE_ROW_29_Right_29
*462 PHY_EDGE_ROW_30_Right_30
*463 PHY_EDGE_ROW_31_Right_31
*464 PHY_EDGE_ROW_32_Right_32
*465 PHY_EDGE_ROW_33_Right_33
*466 PHY_EDGE_ROW_34_Right_34
*467 PHY_EDGE_ROW_35_Right_35
*468 PHY_EDGE_ROW_36_Right_36
*469 PHY_EDGE_ROW_37_Right_37
*470 PHY_EDGE_ROW_38_Right_38
*471 PHY_EDGE_ROW_39_Right_39
*472 PHY_EDGE_ROW_0_Left_40
*473 PHY_EDGE_ROW_1_Left_41
*474 PHY_EDGE_ROW_2_Left_42
*475 PHY_EDGE_ROW_3_Left_43
*476 PHY_EDGE_ROW_4_Left_44
*477 PHY_EDGE_ROW_5_Left_45
*478 PHY_EDGE_ROW_6_Left_46
*479 PHY_EDGE_ROW_7_Left_47
*480 PHY_EDGE_ROW_8_Left_48
*481 PHY_EDGE_ROW_9_Left_49
*482 PHY_EDGE_ROW_10_Left_50
*483 PHY_EDGE_ROW_11_Left_51
*484 PHY_EDGE_ROW_12_Left_52
*485 PHY_EDGE_ROW_13_Left_53
*486 PHY_EDGE_ROW_14_Left_54
*487 PHY_EDGE_ROW_15_Left_55
*488 PHY_EDGE_ROW_16_Left_56
*489 PHY_EDGE_ROW_17_Left_57
*490 PHY_EDGE_ROW_18_Left_58
*491 PHY_EDGE_ROW_19_Left_59
*492 PHY_EDGE_ROW_20_Left_60
*493 PHY_EDGE_ROW_21_Left_61
*494 PHY_EDGE_ROW_22_Left_62
*495 PHY_EDGE_ROW_23_Left_63
*496 PHY_EDGE_ROW_24_Left_64
*497 PHY_EDGE_ROW_25_Left_65
*498 PHY_EDGE_ROW_26_Left_66
*499 PHY_EDGE_ROW_27_Left_67
*500 PHY_EDGE_ROW_28_Left_68
*501 PHY_EDGE_ROW_29_Left_69
*502 PHY_EDGE_ROW_30_Left_70
*503 PHY_EDGE_ROW_31_Left_71
*504 PHY_EDGE_ROW_32_Left_72
*505 PHY_EDGE_ROW_33_Left_73
*506 PHY_EDGE_ROW_34_Left_74
*507 PHY_EDGE_ROW_35_Left_75
*508 PHY_EDGE_ROW_36_Left_76
*509 PHY_EDGE_ROW_37_Left_77
*510 PHY_EDGE_ROW_38_Left_78
*511 PHY_EDGE_ROW_39_Left_79
*512 TAP_TAPCELL_ROW_0_80
*513 TAP_TAPCELL_ROW_2_81
*514 TAP_TAPCELL_ROW_4_82
*515 TAP_TAPCELL_ROW_6_83
*516 TAP_TAPCELL_ROW_8_84
*517 TAP_TAPCELL_ROW_10_85
*518 TAP_TAPCELL_ROW_12_86
*519 TAP_TAPCELL_ROW_14_87
*520 TAP_TAPCELL_ROW_16_88
*521 TAP_TAPCELL_ROW_18_89
*522 TAP_TAPCELL_ROW_20_90
*523 TAP_TAPCELL_ROW_22_91
*524 TAP_TAPCELL_ROW_24_92
*525 TAP_TAPCELL_ROW_26_93
*526 TAP_TAPCELL_ROW_28_94
*527 TAP_TAPCELL_ROW_30_95
*528 TAP_TAPCELL_ROW_32_96
*529 TAP_TAPCELL_ROW_34_97
*530 TAP_TAPCELL_ROW_36_98
*531 TAP_TAPCELL_ROW_38_99
*532 TAP_TAPCELL_ROW_39_100
*533 input5
*534 input6
*535 input7
*536 input8
*537 input9
*538 output10
*539 output11
*540 output12
*541 output13
*542 output14
*543 output15
*544 output16
*545 output17
*546 output18
*547 output19
*548 output20
*549 output21
*550 output22
*551 output23
*552 output24
*553 output25
*554 output26
*555 output27
*556 output28
*557 output29
*558 output30
*559 output31
*560 output32
*561 output33
*562 output34
*563 output35
*564 clkbuf_0_clock
*565 clkbuf_1_0__f_clock
*566 clkbuf_1_1__f_clock
*567 clkload0
*568 FILLER_0_2
*569 FILLER_0_66
*570 FILLER_0_130
*571 FILLER_0_162
*572 FILLER_0_180
*573 FILLER_0_244
*574 FILLER_0_276
*575 FILLER_0_280
*576 FILLER_1_2
*577 FILLER_1_66
*578 FILLER_1_130
*579 FILLER_1_194
*580 FILLER_1_258
*581 FILLER_1_274
*582 FILLER_1_278
*583 FILLER_1_280
*584 FILLER_2_2
*585 FILLER_2_66
*586 FILLER_2_130
*587 FILLER_2_162
*588 FILLER_2_180
*589 FILLER_2_244
*590 FILLER_2_276
*591 FILLER_2_280
*592 FILLER_3_2
*593 FILLER_3_66
*594 FILLER_3_130
*595 FILLER_3_194
*596 FILLER_3_258
*597 FILLER_3_274
*598 FILLER_3_278
*599 FILLER_3_280
*600 FILLER_4_2
*601 FILLER_4_66
*602 FILLER_4_130
*603 FILLER_4_162
*604 FILLER_4_180
*605 FILLER_4_244
*606 FILLER_4_276
*607 FILLER_4_280
*608 FILLER_5_2
*609 FILLER_5_66
*610 FILLER_5_130
*611 FILLER_5_194
*612 FILLER_5_258
*613 FILLER_5_274
*614 FILLER_5_278
*615 FILLER_5_280
*616 FILLER_6_2
*617 FILLER_6_66
*618 FILLER_6_130
*619 FILLER_6_162
*620 FILLER_6_180
*621 FILLER_6_244
*622 FILLER_6_276
*623 FILLER_6_280
*624 FILLER_7_2
*625 FILLER_7_66
*626 FILLER_7_130
*627 FILLER_7_194
*628 FILLER_7_258
*629 FILLER_7_274
*630 FILLER_7_278
*631 FILLER_7_280
*632 FILLER_8_2
*633 FILLER_8_66
*634 FILLER_8_130
*635 FILLER_8_162
*636 FILLER_8_180
*637 FILLER_8_244
*638 FILLER_8_276
*639 FILLER_8_280
*640 FILLER_9_2
*641 FILLER_9_66
*642 FILLER_9_130
*643 FILLER_9_194
*644 FILLER_9_258
*645 FILLER_9_274
*646 FILLER_9_278
*647 FILLER_9_280
*648 FILLER_10_2
*649 FILLER_10_66
*650 FILLER_10_130
*651 FILLER_10_162
*652 FILLER_10_180
*653 FILLER_10_244
*654 FILLER_10_276
*655 FILLER_10_280
*656 FILLER_11_2
*657 FILLER_11_66
*658 FILLER_11_98
*659 FILLER_11_102
*660 FILLER_11_139
*661 FILLER_11_147
*662 FILLER_11_149
*663 FILLER_11_165
*664 FILLER_11_167
*665 FILLER_11_185
*666 FILLER_11_222
*667 FILLER_11_254
*668 FILLER_11_270
*669 FILLER_11_278
*670 FILLER_11_280
*671 FILLER_12_2
*672 FILLER_12_34
*673 FILLER_12_72
*674 FILLER_12_104
*675 FILLER_12_122
*676 FILLER_12_124
*677 FILLER_12_138
*678 FILLER_12_170
*679 FILLER_12_180
*680 FILLER_12_199
*681 FILLER_12_263
*682 FILLER_12_279
*683 FILLER_13_2
*684 FILLER_13_34
*685 FILLER_13_50
*686 FILLER_13_88
*687 FILLER_13_138
*688 FILLER_13_158
*689 FILLER_13_160
*690 FILLER_13_167
*691 FILLER_13_169
*692 FILLER_13_188
*693 FILLER_13_205
*694 FILLER_13_269
*695 FILLER_13_277
*696 FILLER_14_2
*697 FILLER_14_18
*698 FILLER_14_26
*699 FILLER_14_87
*700 FILLER_14_103
*701 FILLER_14_111
*702 FILLER_14_145
*703 FILLER_14_176
*704 FILLER_14_180
*705 FILLER_14_188
*706 FILLER_14_190
*707 FILLER_14_227
*708 FILLER_14_259
*709 FILLER_14_275
*710 FILLER_14_279
*711 FILLER_15_2
*712 FILLER_15_40
*713 FILLER_15_48
*714 FILLER_15_52
*715 FILLER_15_90
*716 FILLER_15_106
*717 FILLER_15_122
*718 FILLER_15_138
*719 FILLER_15_146
*720 FILLER_15_166
*721 FILLER_15_187
*722 FILLER_15_251
*723 FILLER_15_267
*724 FILLER_15_275
*725 FILLER_15_279
*726 FILLER_16_2
*727 FILLER_16_18
*728 FILLER_16_26
*729 FILLER_16_44
*730 FILLER_16_60
*731 FILLER_16_83
*732 FILLER_16_99
*733 FILLER_16_177
*734 FILLER_16_180
*735 FILLER_16_184
*736 FILLER_16_186
*737 FILLER_16_202
*738 FILLER_16_266
*739 FILLER_16_274
*740 FILLER_16_278
*741 FILLER_16_280
*742 FILLER_17_2
*743 FILLER_17_66
*744 FILLER_17_130
*745 FILLER_17_134
*746 FILLER_17_136
*747 FILLER_17_180
*748 FILLER_17_188
*749 FILLER_17_190
*750 FILLER_17_227
*751 FILLER_17_259
*752 FILLER_17_275
*753 FILLER_17_279
*754 FILLER_18_38
*755 FILLER_18_42
*756 FILLER_18_52
*757 FILLER_18_68
*758 FILLER_18_105
*759 FILLER_18_121
*760 FILLER_18_177
*761 FILLER_18_180
*762 FILLER_18_244
*763 FILLER_18_276
*764 FILLER_18_280
*765 FILLER_19_2
*766 FILLER_19_6
*767 FILLER_19_31
*768 FILLER_19_39
*769 FILLER_19_91
*770 FILLER_19_123
*771 FILLER_19_125
*772 FILLER_19_150
*773 FILLER_19_223
*774 FILLER_19_263
*775 FILLER_19_279
*776 FILLER_20_2
*777 FILLER_20_10
*778 FILLER_20_104
*779 FILLER_20_120
*780 FILLER_20_122
*781 FILLER_20_140
*782 FILLER_20_172
*783 FILLER_20_176
*784 FILLER_20_180
*785 FILLER_20_212
*786 FILLER_20_216
*787 FILLER_20_237
*788 FILLER_20_269
*789 FILLER_20_277
*790 FILLER_21_2
*791 FILLER_21_34
*792 FILLER_21_50
*793 FILLER_21_58
*794 FILLER_21_77
*795 FILLER_21_109
*796 FILLER_21_113
*797 FILLER_21_188
*798 FILLER_21_220
*799 FILLER_21_224
*800 FILLER_21_244
*801 FILLER_21_276
*802 FILLER_21_280
*803 FILLER_22_2
*804 FILLER_22_18
*805 FILLER_22_31
*806 FILLER_22_68
*807 FILLER_22_70
*808 FILLER_22_89
*809 FILLER_22_105
*810 FILLER_22_107
*811 FILLER_22_128
*812 FILLER_22_136
*813 FILLER_22_155
*814 FILLER_22_171
*815 FILLER_22_175
*816 FILLER_22_177
*817 FILLER_22_180
*818 FILLER_22_226
*819 FILLER_22_230
*820 FILLER_22_232
*821 FILLER_22_269
*822 FILLER_22_277
*823 FILLER_23_2
*824 FILLER_23_10
*825 FILLER_23_14
*826 FILLER_23_16
*827 FILLER_23_26
*828 FILLER_23_30
*829 FILLER_23_68
*830 FILLER_23_112
*831 FILLER_23_114
*832 FILLER_23_157
*833 FILLER_23_159
*834 FILLER_23_207
*835 FILLER_23_209
*836 FILLER_23_246
*837 FILLER_23_278
*838 FILLER_23_280
*839 FILLER_24_2
*840 FILLER_24_36
*841 FILLER_24_40
*842 FILLER_24_42
*843 FILLER_24_58
*844 FILLER_24_62
*845 FILLER_24_78
*846 FILLER_24_86
*847 FILLER_24_96
*848 FILLER_24_112
*849 FILLER_24_114
*850 FILLER_24_161
*851 FILLER_24_177
*852 FILLER_24_180
*853 FILLER_24_196
*854 FILLER_24_200
*855 FILLER_24_211
*856 FILLER_24_275
*857 FILLER_24_279
*858 FILLER_25_2
*859 FILLER_25_18
*860 FILLER_25_20
*861 FILLER_25_27
*862 FILLER_25_41
*863 FILLER_25_49
*864 FILLER_25_53
*865 FILLER_25_55
*866 FILLER_25_74
*867 FILLER_25_78
*868 FILLER_25_92
*869 FILLER_25_102
*870 FILLER_25_121
*871 FILLER_25_138
*872 FILLER_25_170
*873 FILLER_25_186
*874 FILLER_25_197
*875 FILLER_25_229
*876 FILLER_25_233
*877 FILLER_25_245
*878 FILLER_25_277
*879 FILLER_26_2
*880 FILLER_26_43
*881 FILLER_26_75
*882 FILLER_26_83
*883 FILLER_26_87
*884 FILLER_26_89
*885 FILLER_26_107
*886 FILLER_26_132
*887 FILLER_26_140
*888 FILLER_26_153
*889 FILLER_26_157
*890 FILLER_26_176
*891 FILLER_26_180
*892 FILLER_26_188
*893 FILLER_26_190
*894 FILLER_26_227
*895 FILLER_26_235
*896 FILLER_26_237
*897 FILLER_26_274
*898 FILLER_26_278
*899 FILLER_26_280
*900 FILLER_27_2
*901 FILLER_27_66
*902 FILLER_27_82
*903 FILLER_27_99
*904 FILLER_27_107
*905 FILLER_27_109
*906 FILLER_27_132
*907 FILLER_27_140
*908 FILLER_27_144
*909 FILLER_27_203
*910 FILLER_27_219
*911 FILLER_27_223
*912 FILLER_27_242
*913 FILLER_27_244
*914 FILLER_28_38
*915 FILLER_28_54
*916 FILLER_28_62
*917 FILLER_28_66
*918 FILLER_28_68
*919 FILLER_28_102
*920 FILLER_28_132
*921 FILLER_28_164
*922 FILLER_28_172
*923 FILLER_28_176
*924 FILLER_28_180
*925 FILLER_28_196
*926 FILLER_28_213
*927 FILLER_28_215
*928 FILLER_28_226
*929 FILLER_28_230
*930 FILLER_28_232
*931 FILLER_28_279
*932 FILLER_29_2
*933 FILLER_29_6
*934 FILLER_29_17
*935 FILLER_29_21
*936 FILLER_29_100
*937 FILLER_29_116
*938 FILLER_29_120
*939 FILLER_29_130
*940 FILLER_29_146
*941 FILLER_29_154
*942 FILLER_29_158
*943 FILLER_29_179
*944 FILLER_29_183
*945 FILLER_29_238
*946 FILLER_29_249
*947 FILLER_30_2
*948 FILLER_30_18
*949 FILLER_30_41
*950 FILLER_30_49
*951 FILLER_30_68
*952 FILLER_30_72
*953 FILLER_30_91
*954 FILLER_30_95
*955 FILLER_30_97
*956 FILLER_30_116
*957 FILLER_30_136
*958 FILLER_30_140
*959 FILLER_30_160
*960 FILLER_30_176
*961 FILLER_30_180
*962 FILLER_30_196
*963 FILLER_30_200
*964 FILLER_30_211
*965 FILLER_30_227
*966 FILLER_30_238
*967 FILLER_30_270
*968 FILLER_30_278
*969 FILLER_30_280
*970 FILLER_31_2
*971 FILLER_31_42
*972 FILLER_31_46
*973 FILLER_31_48
*974 FILLER_31_82
*975 FILLER_31_90
*976 FILLER_31_97
*977 FILLER_31_119
*978 FILLER_31_121
*979 FILLER_31_128
*980 FILLER_31_136
*981 FILLER_31_140
*982 FILLER_31_142
*983 FILLER_31_152
*984 FILLER_31_156
*985 FILLER_31_193
*986 FILLER_31_201
*987 FILLER_31_248
*988 FILLER_31_280
*989 FILLER_32_38
*990 FILLER_32_42
*991 FILLER_32_58
*992 FILLER_32_90
*993 FILLER_32_98
*994 FILLER_32_120
*995 FILLER_32_136
*996 FILLER_32_140
*997 FILLER_32_216
*998 FILLER_32_232
*999 FILLER_32_240
*1000 FILLER_32_244
*1001 FILLER_33_2
*1002 FILLER_33_6
*1003 FILLER_33_17
*1004 FILLER_33_33
*1005 FILLER_33_73
*1006 FILLER_33_113
*1007 FILLER_33_129
*1008 FILLER_33_137
*1009 FILLER_33_139
*1010 FILLER_33_186
*1011 FILLER_33_218
*1012 FILLER_33_220
*1013 FILLER_33_250
*1014 FILLER_33_266
*1015 FILLER_33_274
*1016 FILLER_33_278
*1017 FILLER_33_280
*1018 FILLER_34_2
*1019 FILLER_34_66
*1020 FILLER_34_98
*1021 FILLER_34_106
*1022 FILLER_34_113
*1023 FILLER_34_121
*1024 FILLER_34_128
*1025 FILLER_34_136
*1026 FILLER_34_138
*1027 FILLER_34_158
*1028 FILLER_34_174
*1029 FILLER_34_180
*1030 FILLER_34_184
*1031 FILLER_34_186
*1032 FILLER_34_197
*1033 FILLER_34_213
*1034 FILLER_34_221
*1035 FILLER_34_235
*1036 FILLER_34_243
*1037 FILLER_35_38
*1038 FILLER_35_70
*1039 FILLER_35_74
*1040 FILLER_35_117
*1041 FILLER_35_133
*1042 FILLER_35_150
*1043 FILLER_35_166
*1044 FILLER_35_174
*1045 FILLER_35_176
*1046 FILLER_35_187
*1047 FILLER_35_224
*1048 FILLER_35_249
*1049 FILLER_36_2
*1050 FILLER_36_18
*1051 FILLER_36_26
*1052 FILLER_36_63
*1053 FILLER_36_95
*1054 FILLER_36_103
*1055 FILLER_36_107
*1056 FILLER_36_109
*1057 FILLER_36_116
*1058 FILLER_36_132
*1059 FILLER_36_140
*1060 FILLER_36_142
*1061 FILLER_36_153
*1062 FILLER_36_169
*1063 FILLER_36_177
*1064 FILLER_36_180
*1065 FILLER_36_217
*1066 FILLER_37_2
*1067 FILLER_37_34
*1068 FILLER_37_38
*1069 FILLER_37_40
*1070 FILLER_37_88
*1071 FILLER_37_104
*1072 FILLER_37_141
*1073 FILLER_37_215
*1074 FILLER_37_219
*1075 FILLER_37_230
*1076 FILLER_37_234
*1077 FILLER_37_245
*1078 FILLER_37_277
*1079 FILLER_38_2
*1080 FILLER_38_34
*1081 FILLER_38_42
*1082 FILLER_38_86
*1083 FILLER_38_118
*1084 FILLER_38_134
*1085 FILLER_38_180
*1086 FILLER_38_196
*1087 FILLER_38_198
*1088 FILLER_38_271
*1089 FILLER_38_279
*1090 FILLER_39_2
*1091 FILLER_39_6
*1092 FILLER_39_8
*1093 FILLER_39_117
*1094 FILLER_39_125
*1095 FILLER_39_163
*1096 FILLER_39_171
*1097 FILLER_39_175
*1098 FILLER_39_177
*1099 FILLER_39_180
*1100 FILLER_39_196
*1101 FILLER_39_204
*1102 FILLER_39_208
*1103 FILLER_39_245
*1104 FILLER_39_277

*PORTS
clock I
dco I
div[0] I
div[1] I
div[2] I
div[3] I
div[4] I
enable I
osc I
reset I
trim[0] O
trim[10] O
trim[11] O
trim[12] O
trim[13] O
trim[14] O
trim[15] O
trim[16] O
trim[17] O
trim[18] O
trim[19] O
trim[1] O
trim[20] O
trim[21] O
trim[22] O
trim[23] O
trim[24] O
trim[25] O
trim[2] O
trim[3] O
trim[4] O
trim[5] O
trim[6] O
trim[7] O
trim[8] O
trim[9] O

*D_NET *1 0.00267728
*CONN
*I *390:CI I *D gf180mcu_fd_sc_mcu7t5v0__addf_1
*I *262:A1 I *D gf180mcu_fd_sc_mcu7t5v0__aoi21_2
*I *400:CO O *D gf180mcu_fd_sc_mcu7t5v0__addh_1
*CAP
1 *390:CI 0.000357699
2 *262:A1 0
3 *400:CO 0.000624685
4 *1:10 0.000982384
5 *390:CI *260:A2 0
6 *390:CI *262:A2 0.000259518
7 *390:CI *262:B 5.61677e-06
8 *390:CI *390:B 0
9 *390:CI *395:B 0
10 *1:10 *262:B 4.93937e-05
11 *1:10 *263:A2 0.000111773
12 *1:10 *280:I 0.00026046
13 *1:10 *400:A 2.57503e-05
14 *1:10 *48:88 0
*RES
1 *400:CO *1:10 15.9121 
2 *1:10 *262:A1 4.23 
3 *1:10 *390:CI 5.99899 
*END

*D_NET *2 0.000866143
*CONN
*I *253:A1 I *D gf180mcu_fd_sc_mcu7t5v0__and2_2
*I *260:A1 I *D gf180mcu_fd_sc_mcu7t5v0__xnor2_2
*I *390:CO O *D gf180mcu_fd_sc_mcu7t5v0__addf_1
*CAP
1 *253:A1 0.000213582
2 *260:A1 0.000433071
3 *390:CO 0.000219489
4 *253:A1 *260:A2 0
*RES
1 *390:CO *260:A1 9.47085 
2 *260:A1 *253:A1 9.47085 
*END

*D_NET *3 0.00764598
*CONN
*I *404:B I *D gf180mcu_fd_sc_mcu7t5v0__addh_1
*I *406:B I *D gf180mcu_fd_sc_mcu7t5v0__addh_1
*I *405:B I *D gf180mcu_fd_sc_mcu7t5v0__addh_1
*I *391:CI I *D gf180mcu_fd_sc_mcu7t5v0__addf_1
*I *408:B I *D gf180mcu_fd_sc_mcu7t5v0__addh_1
*I *407:B I *D gf180mcu_fd_sc_mcu7t5v0__addh_1
*I *279:ZN O *D gf180mcu_fd_sc_mcu7t5v0__clkinv_2
*CAP
1 *404:B 0.000216958
2 *406:B 0
3 *405:B 0.000255001
4 *391:CI 0.000485511
5 *408:B 1.16039e-05
6 *407:B 0.000199872
7 *279:ZN 0.000364678
8 *3:42 0.000714002
9 *3:36 0.000766465
10 *3:21 0.000662422
11 *3:10 0.000639351
12 *391:CI *335:A2 0
13 *391:CI *40:10 0.000183731
14 *391:CI *211:15 2.6126e-05
15 *391:CI *211:63 0.000202447
16 *391:CI *212:12 3.61349e-05
17 *391:CI *212:18 2.05229e-05
18 *404:B *211:15 1.35442e-05
19 *405:B *332:A2 3.83835e-06
20 *405:B *406:A 2.00532e-06
21 *405:B *4:16 6.71986e-05
22 *405:B *40:10 2.39226e-05
23 *405:B *212:12 0
24 *405:B *212:18 0
25 *407:B *335:A1 5.87561e-06
26 *407:B *408:A 9.88736e-06
27 *407:B *211:63 0
28 *407:B *212:51 5.29265e-05
29 *408:B *408:A 9.88736e-06
30 *408:B *212:51 5.22519e-05
31 *3:10 *279:I 0.000217371
32 *3:10 *335:A1 5.19424e-05
33 *3:10 *335:B 0.000589867
34 *3:10 *110:43 0
35 *3:21 *335:A1 0.000118207
36 *3:21 *408:A 2.15123e-05
37 *3:36 *332:C 1.82117e-05
38 *3:36 *333:A2 0
39 *3:36 *334:A1 4.24895e-05
40 *3:36 *334:A2 0.000426799
41 *3:36 *334:A3 8.19364e-05
42 *3:36 *335:A1 0.000194928
43 *3:36 *408:A 9.45953e-05
44 *3:36 *45:10 7.66339e-05
45 *3:36 *212:51 3.19259e-05
46 *3:42 *332:C 5.26299e-05
47 *3:42 *334:A2 0.000282593
48 *3:42 *335:A2 0
49 *3:42 *406:A 0.000138265
50 *3:42 *40:10 0.000151796
51 *3:42 *42:8 2.81092e-05
*RES
1 *279:ZN *3:10 10.9172 
2 *3:10 *407:B 9.47085 
3 *3:10 *3:21 0.568603 
4 *3:21 *408:B 8.58636 
5 *3:21 *3:36 7.95751 
6 *3:36 *3:42 5.93581 
7 *3:42 *391:CI 10.3553 
8 *3:42 *405:B 9.72356 
9 *3:36 *406:B 4.23 
10 *391:CI *404:B 9.34449 
*END

*D_NET *4 0.0035836
*CONN
*I *332:A1 I *D gf180mcu_fd_sc_mcu7t5v0__aoi211_2
*I *320:A1 I *D gf180mcu_fd_sc_mcu7t5v0__nand2_2
*I *313:A1 I *D gf180mcu_fd_sc_mcu7t5v0__xnor2_2
*I *391:CO O *D gf180mcu_fd_sc_mcu7t5v0__addf_1
*CAP
1 *332:A1 0
2 *320:A1 0
3 *313:A1 0.000675526
4 *391:CO 0.000125748
5 *4:16 0.000897894
6 *4:10 0.000348116
7 *313:A1 *313:A2 0.000163724
8 *313:A1 *316:I 9.32451e-05
9 *313:A1 *317:A2 4.65899e-05
10 *313:A1 *321:A2 6.12676e-05
11 *313:A1 *405:A 0
12 *313:A1 *114:14 9.78026e-05
13 *4:10 *405:A 0
14 *4:10 *40:10 0.000224477
15 *4:16 *316:I 2.74712e-05
16 *4:16 *320:A2 0.000505185
17 *4:16 *332:A2 0.000246199
18 *4:16 *405:A 3.15259e-06
19 *405:B *4:16 6.71986e-05
*RES
1 *391:CO *4:10 13.7008 
2 *4:10 *4:16 1.83216 
3 *4:16 *313:A1 16.607 
4 *4:16 *320:A1 4.23 
5 *4:10 *332:A1 4.23 
*END

*D_NET *5 0.000843602
*CONN
*I *311:I0 I *D gf180mcu_fd_sc_mcu7t5v0__mux2_2
*I *391:S O *D gf180mcu_fd_sc_mcu7t5v0__addf_1
*CAP
1 *311:I0 0.000309106
2 *391:S 0.000309106
3 *311:I0 *310:A1 0.000110467
4 *311:I0 *310:A2 0.000102222
5 *311:I0 *110:16 5.95107e-06
6 *311:I0 *211:19 6.74954e-06
*RES
1 *391:S *311:I0 18.4882 
*END

*D_NET *6 0.00161095
*CONN
*I *277:C I *D gf180mcu_fd_sc_mcu7t5v0__aoi221_4
*I *392:CO O *D gf180mcu_fd_sc_mcu7t5v0__addh_1
*CAP
1 *277:C 0.000388669
2 *392:CO 0.000388669
3 *277:C *393:B 0
4 *277:C *8:12 5.20339e-06
5 *277:C *9:8 0.000160095
6 *277:C *104:10 0.000668315
*RES
1 *392:CO *277:C 11.2398 
*END

*D_NET *7 0.00388755
*CONN
*I *256:A1 I *D gf180mcu_fd_sc_mcu7t5v0__xnor2_2
*I *276:A1 I *D gf180mcu_fd_sc_mcu7t5v0__and2_2
*I *277:A1 I *D gf180mcu_fd_sc_mcu7t5v0__aoi221_4
*I *392:S O *D gf180mcu_fd_sc_mcu7t5v0__addh_1
*CAP
1 *256:A1 0.000272592
2 *276:A1 0.000155271
3 *277:A1 0
4 *392:S 0.000533388
5 *7:21 0.000811525
6 *7:6 0.00091705
7 *256:A1 *256:A2 2.57202e-06
8 *256:A1 *275:I 4.33878e-05
9 *256:A1 *277:A2 8.8686e-05
10 *256:A1 *9:10 0
11 *256:A1 *9:19 0
12 *256:A1 *154:22 5.91873e-05
13 *276:A1 *275:I 9.11586e-05
14 *276:A1 *8:12 0
15 *276:A1 *9:10 7.22696e-05
16 *276:A1 *246:37 0.000261184
17 *7:6 *277:A2 9.26789e-05
18 *7:6 *303:I 0
19 *7:6 *308:A3 0
20 *7:6 *88:14 2.17343e-05
21 *7:6 *246:19 4.52761e-06
22 *7:21 *272:C 0
23 *7:21 *275:I 9.51827e-06
24 *7:21 *277:A2 0.00019612
25 *7:21 *564:I 5.77361e-05
26 *7:21 *246:6 1.00588e-05
27 *7:21 *246:32 1.3448e-05
28 *7:21 *246:37 0.000173457
*RES
1 *392:S *7:6 6.88348 
2 *7:6 *277:A1 4.23 
3 *7:6 *7:21 6.56759 
4 *7:21 *276:A1 9.9131 
5 *7:21 *256:A1 9.9131 
*END

*D_NET *8 0.00306605
*CONN
*I *255:B I *D gf180mcu_fd_sc_mcu7t5v0__aoi21_2
*I *274:B I *D gf180mcu_fd_sc_mcu7t5v0__aoi21_2
*I *393:CO O *D gf180mcu_fd_sc_mcu7t5v0__addh_1
*CAP
1 *255:B 0.000469174
2 *274:B 0
3 *393:CO 0.000683312
4 *8:12 0.00115249
5 *255:B *254:A1 0
6 *255:B *274:A2 8.03678e-06
7 *255:B *9:10 0
8 *255:B *9:19 1.97747e-05
9 *255:B *10:12 0.000240235
10 *8:12 *274:A2 5.87561e-06
11 *8:12 *277:B1 0.00032467
12 *8:12 *277:B2 0.00014811
13 *8:12 *342:S 0
14 *8:12 *393:A 0
15 *8:12 *9:8 0
16 *8:12 *9:10 0
17 *8:12 *10:12 9.17202e-06
18 *8:12 *158:17 0
19 *276:A1 *8:12 0
20 *277:C *8:12 5.20339e-06
*RES
1 *393:CO *8:12 16.4175 
2 *8:12 *274:B 4.23 
3 *8:12 *255:B 15.533 
*END

*D_NET *9 0.00327698
*CONN
*I *276:A2 I *D gf180mcu_fd_sc_mcu7t5v0__and2_2
*I *255:A1 I *D gf180mcu_fd_sc_mcu7t5v0__aoi21_2
*I *265:A1 I *D gf180mcu_fd_sc_mcu7t5v0__xnor2_2
*I *274:A1 I *D gf180mcu_fd_sc_mcu7t5v0__aoi21_2
*I *393:S O *D gf180mcu_fd_sc_mcu7t5v0__addh_1
*CAP
1 *276:A2 2.18614e-05
2 *255:A1 7.29529e-05
3 *265:A1 1.462e-05
4 *274:A1 0
5 *393:S 0.000345442
6 *9:19 0.000500151
7 *9:10 0.000667625
8 *9:8 0.00062235
9 *255:A1 *255:A2 0.000293777
10 *265:A1 *255:A2 2.05229e-05
11 *265:A1 *265:A2 0
12 *9:8 *277:A2 0
13 *9:8 *277:B1 0
14 *9:10 *274:A2 5.75752e-06
15 *9:19 *255:A2 1.15334e-05
16 *9:19 *256:A2 0.000448242
17 *255:B *9:10 0
18 *255:B *9:19 1.97747e-05
19 *256:A1 *9:10 0
20 *256:A1 *9:19 0
21 *276:A1 *9:10 7.22696e-05
22 *277:C *9:8 0.000160095
23 *8:12 *9:8 0
24 *8:12 *9:10 0
*RES
1 *393:S *9:8 6.12534 
2 *9:8 *9:10 1.13721 
3 *9:10 *274:A1 4.23 
4 *9:10 *9:19 2.71666 
5 *9:19 *265:A1 4.41953 
6 *9:19 *255:A1 5.17767 
7 *9:8 *276:A2 4.35636 
*END

*D_NET *10 0.0050342
*CONN
*I *274:A2 I *D gf180mcu_fd_sc_mcu7t5v0__aoi21_2
*I *254:A1 I *D gf180mcu_fd_sc_mcu7t5v0__or2_2
*I *264:A1 I *D gf180mcu_fd_sc_mcu7t5v0__nor2_2
*I *394:CO O *D gf180mcu_fd_sc_mcu7t5v0__addh_1
*CAP
1 *274:A2 0.000206651
2 *254:A1 0.000461466
3 *264:A1 0
4 *394:CO 0.000505497
5 *10:12 0.000663127
6 *10:8 0.000913809
7 *254:A1 *253:A2 0.000144585
8 *254:A1 *254:A2 9.34994e-05
9 *254:A1 *255:A2 2.3864e-05
10 *254:A1 *265:A2 2.11431e-05
11 *254:A1 *277:B2 6.17859e-05
12 *254:A1 *280:I 0
13 *254:A1 *75:8 0.000121677
14 *254:A1 *154:22 0
15 *274:A2 *275:I 8.38691e-05
16 *274:A2 *246:37 3.51555e-05
17 *10:8 *341:I1 1.97385e-05
18 *10:8 *394:A 4.38741e-05
19 *10:8 *246:37 5.19212e-05
20 *10:8 *247:12 0
21 *10:12 *265:A2 1.15334e-05
22 *10:12 *277:B2 0.00130192
23 *255:B *254:A1 0
24 *255:B *274:A2 8.03678e-06
25 *255:B *10:12 0.000240235
26 *8:12 *274:A2 5.87561e-06
27 *8:12 *10:12 9.17202e-06
28 *9:10 *274:A2 5.75752e-06
*RES
1 *394:CO *10:8 11.1767 
2 *10:8 *10:12 7.00984 
3 *10:12 *264:A1 4.23 
4 *10:12 *254:A1 15.4698 
5 *10:8 *274:A2 9.59721 
*END

*D_NET *11 0.00229846
*CONN
*I *253:A2 I *D gf180mcu_fd_sc_mcu7t5v0__and2_2
*I *259:I I *D gf180mcu_fd_sc_mcu7t5v0__clkinv_2
*I *394:S O *D gf180mcu_fd_sc_mcu7t5v0__addh_1
*CAP
1 *253:A2 0.000370087
2 *259:I 0
3 *394:S 0.000456346
4 *11:8 0.000826433
5 *253:A2 *263:A2 8.38773e-05
6 *253:A2 *277:B2 5.14885e-06
7 *253:A2 *280:I 0.000130852
8 *253:A2 *73:12 8.03366e-05
9 *11:8 *277:B2 0.000199188
10 *11:8 *73:12 1.60911e-06
11 *254:A1 *253:A2 0.000144585
*RES
1 *394:S *11:8 6.95343 
2 *11:8 *259:I 4.23 
3 *11:8 *253:A2 15.084 
*END

*D_NET *12 0.00103158
*CONN
*I *262:B I *D gf180mcu_fd_sc_mcu7t5v0__aoi21_2
*I *395:CO O *D gf180mcu_fd_sc_mcu7t5v0__addh_1
*CAP
1 *262:B 0.000433933
2 *395:CO 0.000433933
3 *262:B *262:A2 0
4 *262:B *280:I 0.000102755
5 *262:B *399:B 0
6 *262:B *90:63 5.943e-06
7 *390:CI *262:B 5.61677e-06
8 *1:10 *262:B 4.93937e-05
*RES
1 *395:CO *262:B 18.8785 
*END

*D_NET *13 0.000503345
*CONN
*I *262:A2 I *D gf180mcu_fd_sc_mcu7t5v0__aoi21_2
*I *395:S O *D gf180mcu_fd_sc_mcu7t5v0__addh_1
*CAP
1 *262:A2 0.000121914
2 *395:S 0.000121914
3 *262:A2 *260:A2 0
4 *262:B *262:A2 0
5 *390:CI *262:A2 0.000259518
*RES
1 *395:S *262:A2 9.21814 
*END

*D_NET *14 0.00484976
*CONN
*I *396:A I *D gf180mcu_fd_sc_mcu7t5v0__addh_1
*I *252:ZN O *D gf180mcu_fd_sc_mcu7t5v0__clkinv_2
*CAP
1 *396:A 0.00111018
2 *252:ZN 0.00111018
3 *396:A *252:I 4.18368e-05
4 *396:A *272:B2 0.000716984
5 *396:A *272:C 7.0338e-05
6 *396:A *396:B 0.000151807
7 *396:A *399:A 0.000826818
8 *396:A *399:B 0.000173407
9 *396:A *401:A 0.000174952
10 *396:A *401:B 0.000448166
11 *396:A *154:22 2.51016e-05
*RES
1 *252:ZN *396:A 17.1718 
*END

*D_NET *15 0.000958752
*CONN
*I *396:B I *D gf180mcu_fd_sc_mcu7t5v0__addh_1
*I *256:ZN O *D gf180mcu_fd_sc_mcu7t5v0__xnor2_2
*CAP
1 *396:B 0.000249327
2 *256:ZN 0.000249327
3 *396:B *272:C 0.000308291
4 *396:A *396:B 0.000151807
*RES
1 *256:ZN *396:B 18.4995 
*END

*D_NET *16 0.00157055
*CONN
*I *272:C I *D gf180mcu_fd_sc_mcu7t5v0__aoi221_2
*I *396:CO O *D gf180mcu_fd_sc_mcu7t5v0__addh_1
*CAP
1 *272:C 0.000541338
2 *396:CO 0.000541338
3 *272:C *273:A3 7.32527e-06
4 *272:C *17:12 2.20526e-06
5 *272:C *83:10 3.83835e-06
6 *272:C *154:22 9.58776e-05
7 *396:A *272:C 7.0338e-05
8 *396:B *272:C 0.000308291
9 *7:21 *272:C 0
*RES
1 *396:CO *272:C 19.8894 
*END

*D_NET *17 0.00176895
*CONN
*I *268:A1 I *D gf180mcu_fd_sc_mcu7t5v0__and3_2
*I *272:A1 I *D gf180mcu_fd_sc_mcu7t5v0__aoi221_2
*I *396:S O *D gf180mcu_fd_sc_mcu7t5v0__addh_1
*CAP
1 *268:A1 0.000300562