*SPEF "ieee 1481-1999"
*DESIGN "digital_pll_controller"
*DATE "13:56:04 Thursday September 25, 2025"
*VENDOR "The OpenROAD Project"
*PROGRAM "OpenROAD"
*VERSION "9f7714859944860f802c7c961ba83ab4ae83849f"
*DESIGN_FLOW "NAME_SCOPE LOCAL" "PIN_CAP NONE"
*DIVIDER /
*DELIMITER :
*BUS_DELIMITER []
*T_UNIT 1 NS
*C_UNIT 1 PF
*R_UNIT 1 OHM
*L_UNIT 1 HENRY

*NAME_MAP
*1 _000_
*2 _001_
*3 _002_
*4 _003_
*5 _004_
*6 _005_
*7 _006_
*8 _007_
*9 _008_
*10 _009_
*11 _010_
*12 _011_
*13 _012_
*14 _013_
*15 _014_
*16 _015_
*17 _016_
*18 _017_
*19 _018_
*20 _019_
*21 _020_
*22 _021_
*23 _022_
*24 _023_
*25 _024_
*26 _025_
*27 _026_
*28 _027_
*29 _028_
*30 _029_
*31 _030_
*32 _031_
*33 _032_
*34 _033_
*35 _034_
*36 _035_
*37 _036_
*38 _037_
*39 _038_
*40 _039_
*41 _040_
*42 _041_
*43 _042_
*44 _043_
*45 _044_
*46 _045_
*47 _046_
*48 _047_
*49 _048_
*50 _049_
*51 _050_
*52 _051_
*53 _052_
*54 _053_
*55 _054_
*56 _055_
*57 _056_
*58 _057_
*59 _058_
*60 _059_
*61 _060_
*62 _061_
*63 _062_
*64 _063_
*65 _064_
*66 _065_
*67 _066_
*68 _067_
*69 _068_
*70 _069_
*71 _070_
*72 _071_
*73 _072_
*74 _073_
*75 _074_
*76 _075_
*77 _076_
*78 _077_
*79 _078_
*80 _079_
*81 _080_
*82 _081_
*83 _082_
*84 _083_
*85 _084_
*86 _085_
*87 _086_
*88 _087_
*89 _088_
*90 _089_
*91 net4
*92 _091_
*93 _092_
*94 _093_
*95 _094_
*96 _095_
*97 _096_
*98 _097_
*99 _098_
*100 _099_
*101 _100_
*102 _101_
*103 _102_
*104 _103_
*105 _104_
*106 _105_
*107 _106_
*108 _107_
*109 _108_
*110 _109_
*111 _110_
*112 _111_
*113 _112_
*114 _113_
*115 _114_
*116 _115_
*117 _116_
*118 _117_
*119 _118_
*120 _119_
*121 _120_
*122 _121_
*123 _122_
*124 _123_
*125 _124_
*126 net3
*127 _126_
*128 _127_
*129 _128_
*130 _129_
*131 _130_
*132 _131_
*133 _132_
*134 net2
*135 _134_
*136 _135_
*137 _136_
*138 _137_
*139 _138_
*140 _139_
*141 _140_
*142 _141_
*143 _142_
*144 _143_
*145 _144_
*146 _145_
*147 _146_
*148 _147_
*149 _148_
*150 _149_
*151 _150_
*152 _151_
*153 _152_
*154 clock
*155 count0\[0\]
*156 count0\[1\]
*157 count0\[2\]
*158 count0\[3\]
*159 count0\[4\]
*160 count1\[0\]
*161 count1\[1\]
*162 count1\[2\]
*163 count1\[3\]
*164 count1\[4\]
*165 dco
*166 div[0]
*167 div[1]
*168 div[2]
*169 div[3]
*170 div[4]
*171 enable
*172 osc
*173 oscbuf\[0\]
*174 oscbuf\[1\]
*175 oscbuf\[2\]
*176 prep\[0\]
*177 prep\[1\]
*178 prep\[2\]
*179 reset
*180 tint\[0\]
*181 tint\[1\]
*182 tint\[2\]
*183 tint\[3\]
*184 net1
*185 net10
*186 net11
*187 net12
*188 net13
*189 net14
*190 net15
*191 net16
*192 net17
*193 net18
*194 net19
*195 net20
*196 net21
*197 net22
*198 net23
*199 net24
*200 net25
*201 net26
*202 net27
*203 net28
*204 net29
*205 net30
*206 net31
*207 net32
*208 net33
*209 net34
*210 net35
*211 tval\[0\]
*212 tval\[1\]
*215 net5
*216 net6
*217 net7
*218 net8
*219 net9
*220 trim[0]
*221 trim[10]
*222 trim[11]
*223 trim[12]
*224 trim[13]
*225 trim[14]
*226 trim[15]
*227 trim[16]
*228 trim[17]
*229 trim[18]
*230 trim[19]
*231 trim[1]
*232 trim[20]
*233 trim[21]
*234 trim[22]
*235 trim[23]
*236 trim[24]
*237 trim[25]
*238 trim[2]
*239 trim[3]
*240 trim[4]
*241 trim[5]
*242 trim[6]
*243 trim[7]
*244 trim[8]
*245 trim[9]
*246 clknet_0_clock
*247 clknet_1_0__leaf_clock
*248 clknet_1_1__leaf_clock
*249 _153_
*250 _154_
*251 _155_
*252 _156_
*253 _157_
*254 _158_
*255 _159_
*256 _160_
*257 _161_
*258 _162_
*259 _163_
*260 _164_
*261 _165_
*262 _166_
*263 _167_
*264 _168_
*265 _169_
*266 _170_
*267 _171_
*268 _172_
*269 _173_
*270 _174_
*271 _175_
*272 _176_
*273 _177_
*274 _178_
*275 _179_
*276 _180_
*277 _181_
*278 _182_
*279 _183_
*280 _184_
*281 _185_
*282 input4
*283 _187_
*284 _188_
*285 _189_
*286 _190_
*287 _191_
*288 _192_
*289 _193_
*290 _194_
*291 _195_
*292 _196_
*293 _197_
*294 _198_
*295 _199_
*296 _200_
*297 _201_
*298 _202_
*299 _203_
*300 _204_
*301 _205_
*302 _206_
*303 _207_
*304 _208_
*305 _209_
*306 _210_
*307 _211_
*308 _212_
*309 _213_
*310 _214_
*311 _215_
*312 _216_
*313 _217_
*314 _218_
*315 _219_
*316 _220_
*317 _221_
*318 _222_
*319 _223_
*320 _224_
*321 _225_
*322 _226_
*323 _227_
*324 _228_
*325 _229_
*326 _230_
*327 _231_
*328 _232_
*329 _233_
*330 input3
*331 _235_
*332 _236_
*333 _237_
*334 _238_
*335 _239_
*336 _240_
*337 _241_
*338 _242_
*339 _243_
*340 _244_
*341 _245_
*342 _246_
*343 _247_
*344 _248_
*345 _249_
*346 _250_
*347 _251_
*348 _252_
*349 _253_
*350 input2
*351 _255_
*352 _256_
*353 _257_
*354 _258_
*355 _259_
*356 _260_
*357 _261_
*358 _262_
*359 _263_
*360 _264_
*361 _265_
*362 _266_
*363 _267_
*364 _268_
*365 _269_
*366 _270_
*367 _271_
*368 _272_
*369 _273_
*370 _274_
*371 _275_
*372 _276_
*373 _277_
*374 _278_
*375 _279_
*376 _280_
*377 _281_
*378 input1
*379 _283_
*380 _284_
*381 _285_
*382 _286_
*383 _287_
*384 _288_
*385 _289_
*386 _290_
*387 _291_
*388 _292_
*389 _293_
*390 _294_
*391 _295_
*392 _296_
*393 _297_
*394 _298_
*395 _299_
*396 _300_
*397 _301_
*398 _302_
*399 _303_
*400 _304_
*401 _305_
*402 _306_
*403 _307_
*404 _308_
*405 _309_
*406 _310_
*407 _311_
*408 _312_
*409 count0\[0\]\$_DFFE_PP0P_
*410 count0\[1\]\$_DFFE_PP0P_
*411 count0\[2\]\$_DFFE_PP0P_
*412 count0\[3\]\$_DFFE_PP0P_
*413 count0\[4\]\$_DFFE_PP0P_
*414 count1\[0\]\$_DFFE_PP0N_
*415 count1\[1\]\$_DFFE_PP0N_
*416 count1\[2\]\$_DFFE_PP0N_
*417 count1\[3\]\$_DFFE_PP0N_
*418 count1\[4\]\$_DFFE_PP0N_
*419 oscbuf\[0\]\$_DFF_PP0_
*420 oscbuf\[1\]\$_DFF_PP0_
*421 oscbuf\[2\]\$_DFF_PP0_
*422 prep\[0\]\$_DFFE_PP0N_
*423 prep\[1\]\$_DFFE_PP0N_
*424 prep\[2\]\$_DFFE_PP0N_
*425 tval\[0\]\$_DFFE_PP0P_
*426 tval\[1\]\$_DFFE_PP0P_
*427 tval\[2\]\$_DFFE_PP0P_
*428 tval\[3\]\$_DFFE_PP0P_
*429 tval\[4\]\$_DFFE_PP0P_
*430 tval\[5\]\$_DFFE_PP0P_
*431 tval\[6\]\$_DFFE_PP0P_
*432 PHY_EDGE_ROW_0_Right_0
*433 PHY_EDGE_ROW_1_Right_1
*434 PHY_EDGE_ROW_2_Right_2
*435 PHY_EDGE_ROW_3_Right_3
*436 PHY_EDGE_ROW_4_Right_4
*437 PHY_EDGE_ROW_5_Right_5
*438 PHY_EDGE_ROW_6_Right_6
*439 PHY_EDGE_ROW_7_Right_7
*440 PHY_EDGE_ROW_8_Right_8
*441 PHY_EDGE_ROW_9_Right_9
*442 PHY_EDGE_ROW_10_Right_10
*443 PHY_EDGE_ROW_11_Right_11
*444 PHY_EDGE_ROW_12_Right_12
*445 PHY_EDGE_ROW_13_Right_13
*446 PHY_EDGE_ROW_14_Right_14
*447 PHY_EDGE_ROW_15_Right_15
*448 PHY_EDGE_ROW_16_Right_16
*449 PHY_EDGE_ROW_17_Right_17
*450 PHY_EDGE_ROW_18_Right_18
*451 PHY_EDGE_ROW_19_Right_19
*452 PHY_EDGE_ROW_20_Right_20
*453 PHY_EDGE_ROW_21_Right_21
*454 PHY_EDGE_ROW_22_Right_22
*455 PHY_EDGE_ROW_23_Right_23
*456 PHY_EDGE_ROW_24_Right_24
*457 PHY_EDGE_ROW_25_Right_25
*458 PHY_EDGE_ROW_26_Right_26
*459 PHY_EDGE_ROW_27_Right_27
*460 PHY_EDGE_ROW_28_Right_28
*461 PHY_EDGE_ROW_29_Right_29
*462 PHY_EDGE_ROW_30_Right_30
*463 PHY_EDGE_ROW_31_Right_31
*464 PHY_EDGE_ROW_32_Right_32
*465 PHY_EDGE_ROW_33_Right_33
*466 PHY_EDGE_ROW_34_Right_34
*467 PHY_EDGE_ROW_35_Right_35
*468 PHY_EDGE_ROW_36_Right_36
*469 PHY_EDGE_ROW_37_Right_37
*470 PHY_EDGE_ROW_38_Right_38
*471 PHY_EDGE_ROW_39_Right_39
*472 PHY_EDGE_ROW_0_Left_40
*473 PHY_EDGE_ROW_1_Left_41
*474 PHY_EDGE_ROW_2_Left_42
*475 PHY_EDGE_ROW_3_Left_43
*476 PHY_EDGE_ROW_4_Left_44
*477 PHY_EDGE_ROW_5_Left_45
*478 PHY_EDGE_ROW_6_Left_46
*479 PHY_EDGE_ROW_7_Left_47
*480 PHY_EDGE_ROW_8_Left_48
*481 PHY_EDGE_ROW_9_Left_49
*482 PHY_EDGE_ROW_10_Left_50
*483 PHY_EDGE_ROW_11_Left_51
*484 PHY_EDGE_ROW_12_Left_52
*485 PHY_EDGE_ROW_13_Left_53
*486 PHY_EDGE_ROW_14_Left_54
*487 PHY_EDGE_ROW_15_Left_55
*488 PHY_EDGE_ROW_16_Left_56
*489 PHY_EDGE_ROW_17_Left_57
*490 PHY_EDGE_ROW_18_Left_58
*491 PHY_EDGE_ROW_19_Left_59
*492 PHY_EDGE_ROW_20_Left_60
*493 PHY_EDGE_ROW_21_Left_61
*494 PHY_EDGE_ROW_22_Left_62
*495 PHY_EDGE_ROW_23_Left_63
*496 PHY_EDGE_ROW_24_Left_64
*497 PHY_EDGE_ROW_25_Left_65
*498 PHY_EDGE_ROW_26_Left_66
*499 PHY_EDGE_ROW_27_Left_67
*500 PHY_EDGE_ROW_28_Left_68
*501 PHY_EDGE_ROW_29_Left_69
*502 PHY_EDGE_ROW_30_Left_70
*503 PHY_EDGE_ROW_31_Left_71
*504 PHY_EDGE_ROW_32_Left_72
*505 PHY_EDGE_ROW_33_Left_73
*506 PHY_EDGE_ROW_34_Left_74
*507 PHY_EDGE_ROW_35_Left_75
*508 PHY_EDGE_ROW_36_Left_76
*509 PHY_EDGE_ROW_37_Left_77
*510 PHY_EDGE_ROW_38_Left_78
*511 PHY_EDGE_ROW_39_Left_79
*512 TAP_TAPCELL_ROW_0_80
*513 TAP_TAPCELL_ROW_2_81
*514 TAP_TAPCELL_ROW_4_82
*515 TAP_TAPCELL_ROW_6_83
*516 TAP_TAPCELL_ROW_8_84
*517 TAP_TAPCELL_ROW_10_85
*518 TAP_TAPCELL_ROW_12_86
*519 TAP_TAPCELL_ROW_14_87
*520 TAP_TAPCELL_ROW_16_88
*521 TAP_TAPCELL_ROW_18_89
*522 TAP_TAPCELL_ROW_20_90
*523 TAP_TAPCELL_ROW_22_91
*524 TAP_TAPCELL_ROW_24_92
*525 TAP_TAPCELL_ROW_26_93
*526 TAP_TAPCELL_ROW_28_94
*527 TAP_TAPCELL_ROW_30_95
*528 TAP_TAPCELL_ROW_32_96
*529 TAP_TAPCELL_ROW_34_97
*530 TAP_TAPCELL_ROW_36_98
*531 TAP_TAPCELL_ROW_38_99
*532 TAP_TAPCELL_ROW_39_100
*533 input5
*534 input6
*535 input7
*536 input8
*537 input9
*538 output10
*539 output11
*540 output12
*541 output13
*542 output14
*543 output15
*544 output16
*545 output17
*546 output18
*547 output19
*548 output20
*549 output21
*550 output22
*551 output23
*552 output24
*553 output25
*554 output26
*555 output27
*556 output28
*557 output29
*558 output30
*559 output31
*560 output32
*561 output33
*562 output34
*563 output35
*564 clkbuf_0_clock
*565 clkbuf_1_0__f_clock
*566 clkbuf_1_1__f_clock
*567 clkload0
*568 FILLER_0_2
*569 FILLER_0_66
*570 FILLER_0_130
*571 FILLER_0_162
*572 FILLER_0_180
*573 FILLER_0_244
*574 FILLER_0_276
*575 FILLER_0_280
*576 FILLER_1_2
*577 FILLER_1_66
*578 FILLER_1_130
*579 FILLER_1_194
*580 FILLER_1_258
*581 FILLER_1_274
*582 FILLER_1_278
*583 FILLER_1_280
*584 FILLER_2_2
*585 FILLER_2_66
*586 FILLER_2_130
*587 FILLER_2_162
*588 FILLER_2_180
*589 FILLER_2_244
*590 FILLER_2_276
*591 FILLER_2_280
*592 FILLER_3_2
*593 FILLER_3_66
*594 FILLER_3_130
*595 FILLER_3_194
*596 FILLER_3_258
*597 FILLER_3_274
*598 FILLER_3_278
*599 FILLER_3_280
*600 FILLER_4_2
*601 FILLER_4_66
*602 FILLER_4_130
*603 FILLER_4_162
*604 FILLER_4_180
*605 FILLER_4_244
*606 FILLER_4_276
*607 FILLER_4_280
*608 FILLER_5_2
*609 FILLER_5_66
*610 FILLER_5_130
*611 FILLER_5_194
*612 FILLER_5_258
*613 FILLER_5_274
*614 FILLER_5_278
*615 FILLER_5_280
*616 FILLER_6_2
*617 FILLER_6_66
*618 FILLER_6_130
*619 FILLER_6_162
*620 FILLER_6_180
*621 FILLER_6_244
*622 FILLER_6_276
*623 FILLER_6_280
*624 FILLER_7_2
*625 FILLER_7_66
*626 FILLER_7_130
*627 FILLER_7_194
*628 FILLER_7_258
*629 FILLER_7_274
*630 FILLER_7_278
*631 FILLER_7_280
*632 FILLER_8_2
*633 FILLER_8_66
*634 FILLER_8_130
*635 FILLER_8_162
*636 FILLER_8_180
*637 FILLER_8_244
*638 FILLER_8_276
*639 FILLER_8_280
*640 FILLER_9_2
*641 FILLER_9_66
*642 FILLER_9_130
*643 FILLER_9_194
*644 FILLER_9_258
*645 FILLER_9_274
*646 FILLER_9_278
*647 FILLER_9_280
*648 FILLER_10_2
*649 FILLER_10_66
*650 FILLER_10_130
*651 FILLER_10_162
*652 FILLER_10_180
*653 FILLER_10_244
*654 FILLER_10_276
*655 FILLER_10_280
*656 FILLER_11_2
*657 FILLER_11_66
*658 FILLER_11_98
*659 FILLER_11_102
*660 FILLER_11_139
*661 FILLER_11_147
*662 FILLER_11_149
*663 FILLER_11_165
*664 FILLER_11_167
*665 FILLER_11_185
*666 FILLER_11_222
*667 FILLER_11_254
*668 FILLER_11_270
*669 FILLER_11_278
*670 FILLER_11_280
*671 FILLER_12_2
*672 FILLER_12_34
*673 FILLER_12_72
*674 FILLER_12_121
*675 FILLER_12_138
*676 FILLER_12_170
*677 FILLER_12_180
*678 FILLER_12_188
*679 FILLER_12_204
*680 FILLER_12_268
*681 FILLER_12_276
*682 FILLER_12_280
*683 FILLER_13_2
*684 FILLER_13_34
*685 FILLER_13_50
*686 FILLER_13_88
*687 FILLER_13_138
*688 FILLER_13_158
*689 FILLER_13_160
*690 FILLER_13_167
*691 FILLER_13_169
*692 FILLER_13_188
*693 FILLER_13_205
*694 FILLER_13_269
*695 FILLER_13_277
*696 FILLER_14_2
*697 FILLER_14_18
*698 FILLER_14_26
*699 FILLER_14_87
*700 FILLER_14_103
*701 FILLER_14_111
*702 FILLER_14_145
*703 FILLER_14_176
*704 FILLER_14_180
*705 FILLER_14_188
*706 FILLER_14_190
*707 FILLER_14_227
*708 FILLER_14_259
*709 FILLER_14_275
*710 FILLER_14_279
*711 FILLER_15_2
*712 FILLER_15_40
*713 FILLER_15_48
*714 FILLER_15_52
*715 FILLER_15_90
*716 FILLER_15_98
*717 FILLER_15_117
*718 FILLER_15_133
*719 FILLER_15_141
*720 FILLER_15_145
*721 FILLER_15_147
*722 FILLER_15_166
*723 FILLER_15_187
*724 FILLER_15_251
*725 FILLER_15_267
*726 FILLER_15_275
*727 FILLER_15_279
*728 FILLER_16_2
*729 FILLER_16_18
*730 FILLER_16_26
*731 FILLER_16_44
*732 FILLER_16_60
*733 FILLER_16_83
*734 FILLER_16_99
*735 FILLER_16_177
*736 FILLER_16_180
*737 FILLER_16_184
*738 FILLER_16_186
*739 FILLER_16_202
*740 FILLER_16_266
*741 FILLER_16_274
*742 FILLER_16_278
*743 FILLER_16_280
*744 FILLER_17_2
*745 FILLER_17_66
*746 FILLER_17_130
*747 FILLER_17_134
*748 FILLER_17_136
*749 FILLER_17_180
*750 FILLER_17_188
*751 FILLER_17_190
*752 FILLER_17_227
*753 FILLER_17_259
*754 FILLER_17_275
*755 FILLER_17_279
*756 FILLER_18_38
*757 FILLER_18_42
*758 FILLER_18_52
*759 FILLER_18_68
*760 FILLER_18_105
*761 FILLER_18_121
*762 FILLER_18_125
*763 FILLER_18_127
*764 FILLER_18_134
*765 FILLER_18_138
*766 FILLER_18_140
*767 FILLER_18_159
*768 FILLER_18_180
*769 FILLER_18_244
*770 FILLER_18_276
*771 FILLER_18_280
*772 FILLER_19_2
*773 FILLER_19_6
*774 FILLER_19_31
*775 FILLER_19_39
*776 FILLER_19_91
*777 FILLER_19_107
*778 FILLER_19_115
*779 FILLER_19_156
*780 FILLER_19_163
*781 FILLER_19_218
*782 FILLER_19_250
*783 FILLER_19_266
*784 FILLER_19_274
*785 FILLER_19_278
*786 FILLER_19_280
*787 FILLER_20_2
*788 FILLER_20_10
*789 FILLER_20_50
*790 FILLER_20_58
*791 FILLER_20_62
*792 FILLER_20_78
*793 FILLER_20_140
*794 FILLER_20_172
*795 FILLER_20_176
*796 FILLER_20_180
*797 FILLER_20_196
*798 FILLER_20_204
*799 FILLER_20_263
*800 FILLER_20_279
*801 FILLER_21_2
*802 FILLER_21_10
*803 FILLER_21_104
*804 FILLER_21_112
*805 FILLER_21_188
*806 FILLER_21_204
*807 FILLER_21_212
*808 FILLER_21_214
*809 FILLER_21_225
*810 FILLER_21_235
*811 FILLER_21_267
*812 FILLER_21_275
*813 FILLER_21_279
*814 FILLER_22_2
*815 FILLER_22_18
*816 FILLER_22_30
*817 FILLER_22_47
*818 FILLER_22_63
*819 FILLER_22_89
*820 FILLER_22_105
*821 FILLER_22_107
*822 FILLER_22_128
*823 FILLER_22_136
*824 FILLER_22_155
*825 FILLER_22_171
*826 FILLER_22_175
*827 FILLER_22_177
*828 FILLER_22_180
*829 FILLER_22_226
*830 FILLER_22_230
*831 FILLER_22_232
*832 FILLER_22_269
*833 FILLER_22_277
*834 FILLER_23_2
*835 FILLER_23_18
*836 FILLER_23_26
*837 FILLER_23_30
*838 FILLER_23_32
*839 FILLER_23_109
*840 FILLER_23_113
*841 FILLER_23_146
*842 FILLER_23_154
*843 FILLER_23_158
*844 FILLER_23_207
*845 FILLER_23_209
*846 FILLER_23_246
*847 FILLER_23_278
*848 FILLER_23_280
*849 FILLER_24_2
*850 FILLER_24_44
*851 FILLER_24_60
*852 FILLER_24_78
*853 FILLER_24_86
*854 FILLER_24_96
*855 FILLER_24_112
*856 FILLER_24_114
*857 FILLER_24_161
*858 FILLER_24_177
*859 FILLER_24_180
*860 FILLER_24_196
*861 FILLER_24_200
*862 FILLER_24_211
*863 FILLER_24_275
*864 FILLER_24_279
*865 FILLER_25_2
*866 FILLER_25_18
*867 FILLER_25_41
*868 FILLER_25_49
*869 FILLER_25_53
*870 FILLER_25_55
*871 FILLER_25_74
*872 FILLER_25_78
*873 FILLER_25_92
*874 FILLER_25_102
*875 FILLER_25_121
*876 FILLER_25_129
*877 FILLER_25_151
*878 FILLER_25_183
*879 FILLER_25_187
*880 FILLER_25_198
*881 FILLER_25_230
*882 FILLER_25_234
*883 FILLER_25_245
*884 FILLER_25_277
*885 FILLER_26_2
*886 FILLER_26_66
*887 FILLER_26_82
*888 FILLER_26_107
*889 FILLER_26_132
*890 FILLER_26_148
*891 FILLER_26_156
*892 FILLER_26_176
*893 FILLER_26_180
*894 FILLER_26_188
*895 FILLER_26_190
*896 FILLER_26_227
*897 FILLER_26_274
*898 FILLER_26_278
*899 FILLER_26_280
*900 FILLER_27_2
*901 FILLER_27_10
*902 FILLER_27_44
*903 FILLER_27_60
*904 FILLER_27_68
*905 FILLER_27_72
*906 FILLER_27_101
*907 FILLER_27_109
*908 FILLER_27_132
*909 FILLER_27_140
*910 FILLER_27_144
*911 FILLER_27_203
*912 FILLER_27_219
*913 FILLER_27_223
*914 FILLER_27_233
*915 FILLER_27_245
*916 FILLER_27_277
*917 FILLER_28_2
*918 FILLER_28_10
*919 FILLER_28_20
*920 FILLER_28_38
*921 FILLER_28_54
*922 FILLER_28_62
*923 FILLER_28_66
*924 FILLER_28_68
*925 FILLER_28_98
*926 FILLER_28_102
*927 FILLER_28_132
*928 FILLER_28_164
*929 FILLER_28_172
*930 FILLER_28_176
*931 FILLER_28_180
*932 FILLER_28_212
*933 FILLER_28_226
*934 FILLER_28_230
*935 FILLER_28_232
*936 FILLER_28_279
*937 FILLER_29_2
*938 FILLER_29_90
*939 FILLER_29_106
*940 FILLER_29_114
*941 FILLER_29_116
*942 FILLER_29_126
*943 FILLER_29_158
*944 FILLER_29_179
*945 FILLER_29_216
*946 FILLER_29_238
*947 FILLER_29_242
*948 FILLER_29_244
*949 FILLER_30_2
*950 FILLER_30_18
*951 FILLER_30_91
*952 FILLER_30_95
*953 FILLER_30_97
*954 FILLER_30_116
*955 FILLER_30_136
*956 FILLER_30_140
*957 FILLER_30_160
*958 FILLER_30_176
*959 FILLER_30_180
*960 FILLER_30_188
*961 FILLER_30_211
*962 FILLER_30_227
*963 FILLER_30_238
*964 FILLER_30_270
*965 FILLER_30_278
*966 FILLER_30_280
*967 FILLER_31_2
*968 FILLER_31_42
*969 FILLER_31_50
*970 FILLER_31_69
*971 FILLER_31_79
*972 FILLER_31_95
*973 FILLER_31_97
*974 FILLER_31_119
*975 FILLER_31_121
*976 FILLER_31_128
*977 FILLER_31_136
*978 FILLER_31_140
*979 FILLER_31_142
*980 FILLER_31_152
*981 FILLER_31_156
*982 FILLER_31_193
*983 FILLER_31_201
*984 FILLER_31_248
*985 FILLER_31_280
*986 FILLER_32_38
*987 FILLER_32_42
*988 FILLER_32_58
*989 FILLER_32_90
*990 FILLER_32_98
*991 FILLER_32_120
*992 FILLER_32_136
*993 FILLER_32_140
*994 FILLER_32_216
*995 FILLER_32_228
*996 FILLER_32_244
*997 FILLER_33_2
*998 FILLER_33_6
*999 FILLER_33_17
*1000 FILLER_33_33
*1001 FILLER_33_73
*1002 FILLER_33_113
*1003 FILLER_33_129
*1004 FILLER_33_137
*1005 FILLER_33_139
*1006 FILLER_33_186
*1007 FILLER_33_218
*1008 FILLER_33_241
*1009 FILLER_33_273
*1010 FILLER_34_2
*1011 FILLER_34_66
*1012 FILLER_34_98
*1013 FILLER_34_106
*1014 FILLER_34_113
*1015 FILLER_34_121
*1016 FILLER_34_128
*1017 FILLER_34_132
*1018 FILLER_34_158
*1019 FILLER_34_174
*1020 FILLER_34_180
*1021 FILLER_34_184
*1022 FILLER_34_186
*1023 FILLER_34_197
*1024 FILLER_34_213
*1025 FILLER_34_225
*1026 FILLER_34_241
*1027 FILLER_35_38
*1028 FILLER_35_102
*1029 FILLER_35_106
*1030 FILLER_35_108
*1031 FILLER_35_115
*1032 FILLER_35_131
*1033 FILLER_35_139
*1034 FILLER_35_150
*1035 FILLER_35_166
*1036 FILLER_35_174
*1037 FILLER_35_176
*1038 FILLER_35_187
*1039 FILLER_35_224
*1040 FILLER_35_226
*1041 FILLER_35_237
*1042 FILLER_35_269
*1043 FILLER_35_277
*1044 FILLER_36_2
*1045 FILLER_36_18
*1046 FILLER_36_62
*1047 FILLER_36_114
*1048 FILLER_36_130
*1049 FILLER_36_138
*1050 FILLER_36_180
*1051 FILLER_36_227
*1052 FILLER_36_235
*1053 FILLER_37_2
*1054 FILLER_37_34
*1055 FILLER_37_38
*1056 FILLER_37_40
*1057 FILLER_37_88
*1058 FILLER_37_104
*1059 FILLER_37_141
*1060 FILLER_37_153
*1061 FILLER_37_169
*1062 FILLER_37_177
*1063 FILLER_37_215
*1064 FILLER_37_219
*1065 FILLER_37_239
*1066 FILLER_37_243
*1067 FILLER_38_2
*1068 FILLER_38_34
*1069 FILLER_38_42
*1070 FILLER_38_86
*1071 FILLER_38_118
*1072 FILLER_38_134
*1073 FILLER_38_180
*1074 FILLER_38_196
*1075 FILLER_38_198
*1076 FILLER_38_271
*1077 FILLER_38_279
*1078 FILLER_39_2
*1079 FILLER_39_6
*1080 FILLER_39_8
*1081 FILLER_39_153
*1082 FILLER_39_169
*1083 FILLER_39_177
*1084 FILLER_39_180
*1085 FILLER_39_244
*1086 FILLER_39_276
*1087 FILLER_39_280

*PORTS
clock I
dco I
div[0] I
div[1] I
div[2] I
div[3] I
div[4] I
enable I
osc I
reset I
trim[0] O
trim[10] O
trim[11] O
trim[12] O
trim[13] O
trim[14] O
trim[15] O
trim[16] O
trim[17] O
trim[18] O
trim[19] O
trim[1] O
trim[20] O
trim[21] O
trim[22] O
trim[23] O
trim[24] O
trim[25] O
trim[2] O
trim[3] O
trim[4] O
trim[5] O
trim[6] O
trim[7] O
trim[8] O
trim[9] O

*D_NET *1 0.00170197
*CONN
*I *262:A1 I *D gf180mcu_fd_sc_mcu7t5v0__aoi21_2
*I *390:CI I *D gf180mcu_fd_sc_mcu7t5v0__addf_1
*I *400:CO O *D gf180mcu_fd_sc_mcu7t5v0__addh_1
*CAP
1 *262:A1 0.000134044
2 *390:CI 0.000587574
3 *400:CO 0.00045353
4 *262:A1 *262:A2 0.000338887
5 *390:CI *262:B 5.87561e-06
6 *390:CI *400:A 4.12237e-05
7 *390:CI *400:B 4.90721e-05
8 *390:CI *90:69 9.17636e-05
*RES
1 *400:CO *390:CI 18.8153 
2 *390:CI *262:A1 9.40767 
*END

*D_NET *2 0.000900464
*CONN
*I *253:A1 I *D gf180mcu_fd_sc_mcu7t5v0__and2_2
*I *260:A1 I *D gf180mcu_fd_sc_mcu7t5v0__xnor2_2
*I *390:CO O *D gf180mcu_fd_sc_mcu7t5v0__addf_1
*CAP
1 *253:A1 0.000208263
2 *260:A1 0
3 *390:CO 0.00017751
4 *2:10 0.000385773
5 *253:A1 *260:A2 0
6 *2:10 *253:A2 0
7 *2:10 *280:I 3.09516e-05
8 *2:10 *399:B 9.79672e-05
*RES
1 *390:CO *2:10 13.8272 
2 *2:10 *260:A1 4.23 
3 *2:10 *253:A1 5.24085 
*END

*D_NET *3 0.00749074
*CONN
*I *408:B I *D gf180mcu_fd_sc_mcu7t5v0__addh_1
*I *407:B I *D gf180mcu_fd_sc_mcu7t5v0__addh_1
*I *405:B I *D gf180mcu_fd_sc_mcu7t5v0__addh_1
*I *406:B I *D gf180mcu_fd_sc_mcu7t5v0__addh_1
*I *391:CI I *D gf180mcu_fd_sc_mcu7t5v0__addf_1
*I *404:B I *D gf180mcu_fd_sc_mcu7t5v0__addh_1
*I *279:ZN O *D gf180mcu_fd_sc_mcu7t5v0__clkinv_2
*CAP
1 *408:B 0.000126397
2 *407:B 0
3 *405:B 0
4 *406:B 0.000444099
5 *391:CI 0.00021474
6 *404:B 0
7 *279:ZN 0.00034875
8 *3:30 0.000568039
9 *3:24 0.000819428
10 *3:20 0.0008003
11 *3:14 0.000955859
12 *3:10 0.000652736
13 *391:CI *404:A 2.9378e-06
14 *391:CI *211:15 1.23566e-05
15 *406:B *317:A2 4.05504e-05
16 *406:B *320:A2 1.4689e-05
17 *406:B *322:A2 0
18 *406:B *332:A2 5.87561e-06
19 *406:B *332:C 0.00017169
20 *406:B *334:A2 0.000215208
21 *406:B *405:A 0.000544147
22 *406:B *406:A 3.49878e-05
23 *408:B *335:A2 5.22519e-05
24 *408:B *407:A 0
25 *408:B *408:A 3.13997e-05
26 *3:10 *279:I 0.000143331
27 *3:10 *407:A 0
28 *3:10 *110:39 0
29 *3:10 *212:10 5.56084e-06
30 *3:14 *335:A2 6.25522e-05
31 *3:14 *408:A 9.88736e-06
32 *3:14 *212:10 0
33 *3:20 *316:I 8.81341e-06
34 *3:20 *327:I 4.60491e-05
35 *3:20 *334:A2 0
36 *3:20 *334:B 1.17512e-05
37 *3:20 *335:A2 4.90858e-05
38 *3:20 *405:A 9.88736e-06
39 *3:20 *406:A 1.01233e-05
40 *3:20 *4:16 7.66824e-05
41 *3:20 *40:10 2.39226e-05
42 *3:20 *42:10 8.95424e-05
43 *3:20 *123:10 4.43208e-05
44 *3:20 *212:10 0
45 *3:20 *212:41 1.59925e-05
46 *3:24 *405:A 1.97747e-05
47 *3:24 *4:16 9.17202e-06
48 *3:30 *317:A2 7.1215e-05
49 *3:30 *404:A 6.92047e-06
50 *3:30 *405:A 0.00013597
51 *3:30 *4:10 6.48674e-06
52 *3:30 *40:10 0
53 *3:30 *211:15 1.49066e-06
54 *3:30 *212:47 0.000575763
*RES
1 *279:ZN *3:10 10.159 
2 *3:10 *3:14 5.24085 
3 *3:14 *3:20 4.10658 
4 *3:20 *3:24 4.35636 
5 *3:24 *3:30 6.69394 
6 *3:30 *404:B 4.23 
7 *3:30 *391:CI 5.11449 
8 *3:24 *406:B 11.5557 
9 *3:20 *405:B 4.23 
10 *3:14 *407:B 4.23 
11 *3:10 *408:B 9.15496 
*END

*D_NET *4 0.00370566
*CONN
*I *332:A1 I *D gf180mcu_fd_sc_mcu7t5v0__aoi211_2
*I *320:A1 I *D gf180mcu_fd_sc_mcu7t5v0__nand2_2
*I *313:A1 I *D gf180mcu_fd_sc_mcu7t5v0__xnor2_2
*I *391:CO O *D gf180mcu_fd_sc_mcu7t5v0__addf_1
*CAP
1 *332:A1 0
2 *320:A1 0
3 *313:A1 0.000690904
4 *391:CO 0.000111195
5 *4:16 0.000923855
6 *4:10 0.000344146
7 *313:A1 *313:A2 0.000163724
8 *313:A1 *314:I0 0
9 *313:A1 *316:I 0.000124994
10 *313:A1 *317:A2 5.80479e-05
11 *313:A1 *321:A2 6.31391e-05
12 *313:A1 *114:14 9.78026e-05
13 *4:10 *405:A 4.1715e-05
14 *4:10 *40:10 0.000192542
15 *4:16 *316:I 0.000801253
16 *3:20 *4:16 7.66824e-05
17 *3:24 *4:16 9.17202e-06
18 *3:30 *4:10 6.48674e-06
*RES
1 *391:CO *4:10 13.5745 
2 *4:10 *4:16 1.83216 
3 *4:16 *313:A1 16.7334 
4 *4:16 *320:A1 4.23 
5 *4:10 *332:A1 4.23 
*END

*D_NET *5 0.000587304
*CONN
*I *311:I0 I *D gf180mcu_fd_sc_mcu7t5v0__mux2_2
*I *391:S O *D gf180mcu_fd_sc_mcu7t5v0__addf_1
*CAP
1 *311:I0 9.42556e-05
2 *391:S 9.42556e-05
3 *311:I0 *310:A2 0.000386456
4 *311:I0 *110:14 1.23365e-05
*RES
1 *391:S *311:I0 9.33321 
*END

*D_NET *6 0.000814117
*CONN
*I *277:C I *D gf180mcu_fd_sc_mcu7t5v0__aoi221_4
*I *392:CO O *D gf180mcu_fd_sc_mcu7t5v0__addh_1
*CAP
1 *277:C 0.000300194
2 *392:CO 0.000300194
3 *277:C *393:B 0
4 *277:C *417:RN 0
5 *277:C *8:12 4.9095e-05
6 *277:C *9:10 0.000164634
*RES
1 *392:CO *277:C 10.2922 
*END

*D_NET *7 0.003571
*CONN
*I *256:A1 I *D gf180mcu_fd_sc_mcu7t5v0__xnor2_2
*I *276:A1 I *D gf180mcu_fd_sc_mcu7t5v0__and2_2
*I *277:A1 I *D gf180mcu_fd_sc_mcu7t5v0__aoi221_4
*I *392:S O *D gf180mcu_fd_sc_mcu7t5v0__addh_1
*CAP
1 *256:A1 0.000461598
2 *276:A1 0.000325092
3 *277:A1 0
4 *392:S 0.000401953
5 *7:21 0.000929732
6 *7:10 0.000544995
7 *256:A1 *256:A2 5.76671e-06
8 *256:A1 *272:C 0
9 *256:A1 *275:I 4.33878e-05
10 *256:A1 *277:A2 0.000134335
11 *256:A1 *9:10 0
12 *256:A1 *9:16 0
13 *256:A1 *9:23 0
14 *276:A1 *277:B1 0.000186801
15 *276:A1 *8:12 5.20234e-06
16 *276:A1 *9:10 0.000158191
17 *276:A1 *9:16 0
18 *276:A1 *246:37 4.05635e-05
19 *7:10 *277:A2 9.26789e-05
20 *7:10 *303:I 0
21 *7:10 *88:14 3.07844e-05
22 *7:10 *246:19 1.02258e-05
23 *7:21 *277:A2 0.000164923
24 *7:21 *246:37 3.47681e-05
*RES
1 *392:S *7:10 6.50441 
2 *7:10 *277:A1 4.23 
3 *7:10 *7:21 5.05131 
4 *7:21 *276:A1 10.4817 
5 *7:21 *256:A1 10.6712 
*END

*D_NET *8 0.00338913
*CONN
*I *255:B I *D gf180mcu_fd_sc_mcu7t5v0__aoi21_2
*I *274:B I *D gf180mcu_fd_sc_mcu7t5v0__aoi21_2
*I *393:CO O *D gf180mcu_fd_sc_mcu7t5v0__addh_1
*CAP
1 *255:B 0.000509149
2 *274:B 0
3 *393:CO 0.000757198
4 *8:12 0.00126635
5 *255:B *253:A2 2.29645e-06
6 *255:B *254:A1 3.58325e-05
7 *255:B *255:A1 1.00472e-05
8 *255:B *256:A2 8.15821e-05
9 *255:B *265:A2 1.34503e-05
10 *255:B *274:A2 8.03678e-06
11 *255:B *9:16 0
12 *255:B *9:23 0
13 *255:B *10:12 0.000161815
14 *255:B *11:8 1.48157e-05
15 *255:B *75:10 0.000261456
16 *8:12 *274:A2 5.87561e-06
17 *8:12 *277:B1 0.000136788
18 *8:12 *277:B2 0
19 *8:12 *342:I1 0
20 *8:12 *417:RN 6.42684e-05
21 *8:12 *9:10 0
22 *8:12 *9:16 0
23 *8:12 *10:12 5.87561e-06
24 *8:12 *163:8 0
25 *276:A1 *8:12 5.20234e-06
26 *277:C *8:12 4.9095e-05
*RES
1 *393:CO *8:12 16.4175 
2 *8:12 *274:B 4.23 
3 *8:12 *255:B 15.9121 
*END

*D_NET *9 0.00297924
*CONN
*I *276:A2 I *D gf180mcu_fd_sc_mcu7t5v0__and2_2
*I *255:A1 I *D gf180mcu_fd_sc_mcu7t5v0__aoi21_2
*I *265:A1 I *D gf180mcu_fd_sc_mcu7t5v0__xnor2_2
*I *274:A1 I *D gf180mcu_fd_sc_mcu7t5v0__aoi21_2
*I *393:S O *D gf180mcu_fd_sc_mcu7t5v0__addh_1
*CAP
1 *276:A2 1.8418e-05
2 *255:A1 0.000152021
3 *265:A1 0
4 *274:A1 0
5 *393:S 0.00040187
6 *9:23 0.0004522
7 *9:16 0.000547638
8 *9:10 0.000667746
9 *255:A1 *254:A1 0.000208163
10 *255:A1 *265:A2 1.2462e-05
11 *255:A1 *75:10 0
12 *9:16 *274:A2 8.42435e-06
13 *9:23 *254:A1 5.22519e-05
14 *9:23 *256:A2 8.30573e-05
15 *9:23 *265:A2 4.21149e-05
16 *255:B *255:A1 1.00472e-05
17 *255:B *9:16 0
18 *255:B *9:23 0
19 *256:A1 *9:10 0
20 *256:A1 *9:16 0
21 *256:A1 *9:23 0
22 *276:A1 *9:10 0.000158191
23 *276:A1 *9:16 0
24 *277:C *9:10 0.000164634
25 *8:12 *9:10 0
26 *8:12 *9:16 0
*RES
1 *393:S *9:10 6.44123 
2 *9:10 *9:16 1.26356 
3 *9:16 *274:A1 4.23 
4 *9:16 *9:23 1.70581 
5 *9:23 *265:A1 4.23 
6 *9:23 *255:A1 5.30403 
7 *9:10 *276:A2 4.35636 
*END

*D_NET *10 0.00425343
*CONN
*I *274:A2 I *D gf180mcu_fd_sc_mcu7t5v0__aoi21_2
*I *254:A1 I *D gf180mcu_fd_sc_mcu7t5v0__or2_2
*I *264:A1 I *D gf180mcu_fd_sc_mcu7t5v0__nor2_2
*I *394:CO O *D gf180mcu_fd_sc_mcu7t5v0__addh_1
*CAP
1 *274:A2 0.000223395
2 *254:A1 0.000532124
3 *264:A1 0
4 *394:CO 0.000496538
5 *10:12 0.000728482
6 *10:8 0.000916292
7 *254:A1 *254:A2 0
8 *254:A1 *256:A2 0.000119378
9 *274:A2 *275:I 8.38691e-05
10 *274:A2 *246:37 4.1107e-05
11 *10:8 *341:I1 4.00152e-05
12 *10:8 *246:37 4.59697e-05
13 *10:8 *247:16 0
14 *10:12 *277:B2 0.000447306
15 *10:12 *75:10 9.26789e-05
16 *255:A1 *254:A1 0.000208163
17 *255:B *254:A1 3.58325e-05
18 *255:B *274:A2 8.03678e-06
19 *255:B *10:12 0.000161815
20 *8:12 *274:A2 5.87561e-06
21 *8:12 *10:12 5.87561e-06
22 *9:16 *274:A2 8.42435e-06
23 *9:23 *254:A1 5.22519e-05
*RES
1 *394:CO *10:8 11.0503 
2 *10:8 *10:12 6.12534 
3 *10:12 *264:A1 4.23 
4 *10:12 *254:A1 15.2171 
5 *10:8 *274:A2 9.72356 
*END

*D_NET *11 0.00230864
*CONN
*I *253:A2 I *D gf180mcu_fd_sc_mcu7t5v0__and2_2
*I *259:I I *D gf180mcu_fd_sc_mcu7t5v0__clkinv_2
*I *394:S O *D gf180mcu_fd_sc_mcu7t5v0__addh_1
*CAP
1 *253:A2 0.000431549
2 *259:I 0
3 *394:S 0.00042931
4 *11:8 0.00086086
5 *253:A2 *255:A2 2.38062e-05
6 *253:A2 *256:A2 0
7 *253:A2 *263:A2 8.15821e-05
8 *253:A2 *280:I 2.6816e-05
9 *253:A2 *73:10 0.000136788
10 *11:8 *277:B2 0.000262983
11 *11:8 *73:10 1.60911e-06
12 *11:8 *75:10 3.62239e-05
13 *255:B *253:A2 2.29645e-06
14 *255:B *11:8 1.48157e-05
15 *2:10 *253:A2 0
*RES
1 *394:S *11:8 6.95343 
2 *11:8 *259:I 4.23 
3 *11:8 *253:A2 15.084 
*END

*D_NET *12 0.00181165
*CONN
*I *262:B I *D gf180mcu_fd_sc_mcu7t5v0__aoi21_2
*I *395:CO O *D gf180mcu_fd_sc_mcu7t5v0__addh_1
*CAP
1 *262:B 0.000474793
2 *395:CO 0.000474793
3 *262:B *280:I 0.000210941
4 *262:B *90:69 0.000298014
5 *262:B *156:62 0.000347238
6 *390:CI *262:B 5.87561e-06
*RES
1 *395:CO *262:B 19.763 
*END

*D_NET *13 0.0010497
*CONN
*I *262:A2 I *D gf180mcu_fd_sc_mcu7t5v0__aoi21_2
*I *395:S O *D gf180mcu_fd_sc_mcu7t5v0__addh_1
*CAP
1 *262:A2 0.000312808
2 *395:S 0.000312808
3 *262:A2 *280:I 0
4 *262:A2 *390:B 8.51956e-05
5 *262:A1 *262:A2 0.000338887
*RES
1 *395:S *262:A2 10.2922 
*END

*D_NET *14 0.00481328
*CONN
*I *396:A I *D gf180mcu_fd_sc_mcu7t5v0__addh_1
*I *252:ZN O *D gf180mcu_fd_sc_mcu7t5v0__clkinv_2
*CAP
1 *396:A 0.00120605
2 *252:ZN 0.00120605
3 *396:A *252:I 4.18368e-05
4 *396:A *270:I 0
5 *396:A *271:A2 6.73952e-05
6 *396:A *271:B 2.28194e-05
7 *396:A *272:B2 0.000725506
8 *396:A *272:C 7.0338e-05
9 *396:A *396:B 0.000151807
10 *396:A *399:A 0.000826818
11 *396:A *399:B 5.61696e-05
12 *396:A *401:A 0.000174952
13 *396:A *401:B 0.000263534
*RES
1 *252:ZN *396:A 17.1718 
*END

*D_NET *15 0.000955267
*CONN
*I *396:B I *D gf180mcu_fd_sc_mcu7t5v0__addh_1
*I *256:ZN O *D gf180mcu_fd_sc_mcu7t5v0__xnor2_2
*CAP
1 *396:B 0.000247585
2 *256:ZN 0.000247585
3 *396:B *272:C 0.000308291
4 *396:B *397:B 0
5 *396:A *396:B 0.000151807
*RES
1 *256:ZN *396:B 18.4995 
*END

*D_NET *16 0.00155559
*CONN
*I *272:C I *D gf180mcu_fd_sc_mcu7t5v0__aoi221_2
*I *396:CO O *D gf180mcu_fd_sc_mcu7t5v0__addh_1
*CAP
1 *272:C 0.000581795
2 *396:CO 0.000581795
3 *272:C *273:A3 7.32527e-06
4 *272:C *397:B 0
5 *272:C *17:12 2.20526e-06
6 *272:C *83:10 3.83835e-06
7 *256:A1 *272:C 0
8 *396:A *272:C 7.0338e-05
9 *396:B *272:C 0.000308291
*RES
1 *396:CO *272:C 19.8894 
*END

*D_NET *17 0.00173136
*CONN
*I *268:A1 I *D gf180mcu_fd_sc_mcu7t5v0__and3_2
*I *272:A1 I *D gf180mcu_fd_sc_mcu7t5v0__aoi221_2
*I *396:S O *D gf180mcu_fd_sc_mcu7t5v0__addh_1
*CAP
1 *268:A1 0.000273354
2 *272:A1 0
3 *396:S 0.000310297
4 *17:12 0.00058365
5 *268:A1 *272:A2 1.48779e-05
6 *268:A1 *272:B1 0.00013622
7 *268:A1 *79:10 1.51695e-05
8 *268:A1 *83:10 5.36319e-05
9 *17:12 *272:A2 1.50588e-05
10 *17:12 *83:10 0.000326898
11 *272:C *17:12 2.20526e-06
*RES
1 *396:S *17:12 14.2695 