*SPEF "ieee 1481-1999"
*DESIGN "ring_osc2x13"
*DATE "21:03:12 Thursday September 25, 2025"
*VENDOR "The OpenROAD Project"
*PROGRAM "OpenROAD"
*VERSION "9f7714859944860f802c7c961ba83ab4ae83849f"
*DESIGN_FLOW "NAME_SCOPE LOCAL" "PIN_CAP NONE"
*DIVIDER /
*DELIMITER :
*BUS_DELIMITER []
*T_UNIT 1 NS
*C_UNIT 1 PF
*R_UNIT 1 OHM
*L_UNIT 1 HENRY

*NAME_MAP
*1 net53
*2 c\[0\]
*3 c\[1\]
*4 net56
*5 net57
*6 dco
*8 dstage\[0\]\.id\.d1
*9 dstage\[0\]\.id\.d2
*10 dstage\[0\]\.id\.in
*11 dstage\[0\]\.id\.out
*12 dstage\[0\]\.id\.trim0b
*13 dstage\[0\]\.id\.trim1b
*16 dstage\[10\]\.id\.d1
*17 dstage\[10\]\.id\.d2
*18 dstage\[10\]\.id\.in
*19 dstage\[10\]\.id\.out
*20 dstage\[10\]\.id\.trim0b
*21 dstage\[10\]\.id\.trim1b
*24 dstage\[11\]\.id\.d1
*25 dstage\[11\]\.id\.d2
*26 dstage\[11\]\.id\.out
*27 dstage\[11\]\.id\.trim0b
*28 dstage\[11\]\.id\.trim1b
*31 dstage\[1\]\.id\.d1
*32 dstage\[1\]\.id\.d2
*33 dstage\[1\]\.id\.out
*34 dstage\[1\]\.id\.trim0b
*35 dstage\[1\]\.id\.trim1b
*38 dstage\[2\]\.id\.d1
*39 dstage\[2\]\.id\.d2
*40 dstage\[2\]\.id\.out
*41 dstage\[2\]\.id\.trim0b
*42 dstage\[2\]\.id\.trim1b
*45 dstage\[3\]\.id\.d1
*46 dstage\[3\]\.id\.d2
*47 dstage\[3\]\.id\.out
*48 dstage\[3\]\.id\.trim0b
*49 dstage\[3\]\.id\.trim1b
*52 dstage\[4\]\.id\.d1
*53 dstage\[4\]\.id\.d2
*54 dstage\[4\]\.id\.out
*55 dstage\[4\]\.id\.trim0b
*56 dstage\[4\]\.id\.trim1b
*59 dstage\[5\]\.id\.d1
*60 dstage\[5\]\.id\.d2
*61 dstage\[5\]\.id\.out
*62 dstage\[5\]\.id\.trim0b
*63 dstage\[5\]\.id\.trim1b
*66 dstage\[6\]\.id\.d1
*67 dstage\[6\]\.id\.d2
*68 dstage\[6\]\.id\.out
*69 dstage\[6\]\.id\.trim0b
*70 dstage\[6\]\.id\.trim1b
*73 dstage\[7\]\.id\.d1
*74 dstage\[7\]\.id\.d2
*75 dstage\[7\]\.id\.out
*76 dstage\[7\]\.id\.trim0b
*77 dstage\[7\]\.id\.trim1b
*79 clockp[1]
*80 dstage\[8\]\.id\.d1
*81 dstage\[8\]\.id\.d2
*82 dstage\[8\]\.id\.out
*83 dstage\[8\]\.id\.trim0b
*84 dstage\[8\]\.id\.trim1b
*86 net55
*87 dstage\[9\]\.id\.d1
*88 dstage\[9\]\.id\.d2
*89 dstage\[9\]\.id\.trim0b
*90 dstage\[9\]\.id\.trim1b
*91 clockp[0]
*92 enable
*93 ext_trim_0
*94 ext_trim_1
*95 ext_trim_10
*96 ext_trim_11
*97 ext_trim_12
*98 ext_trim_13
*99 ext_trim_14
*100 ext_trim_15
*101 ext_trim_16
*102 ext_trim_17
*103 ext_trim_18
*104 ext_trim_19
*105 ext_trim_2
*106 ext_trim_20
*107 ext_trim_21
*108 ext_trim_22
*109 ext_trim_23
*110 ext_trim_24
*111 ext_trim_25
*112 ext_trim_3
*113 ext_trim_4
*114 ext_trim_5
*115 ext_trim_6
*116 ext_trim_7
*117 ext_trim_8
*118 ext_trim_9
*119 ireset
*120 iss\.ctrl0b
*121 net54
*122 iss\.d1
*123 iss\.d2
*125 iss\.trim1b
*126 reset
*127 trim_0
*128 trim_1
*129 trim_10
*130 trim_11
*131 trim_12
*132 trim_13
*133 trim_14
*134 trim_15
*135 trim_16
*136 trim_17
*137 trim_18
*138 trim_19
*139 trim_2
*140 trim_20
*141 trim_21
*142 trim_22
*143 trim_23
*144 trim_24
*145 trim_25
*146 trim_3
*147 trim_4
*148 trim_5
*149 trim_6
*150 trim_7
*151 trim_8
*152 trim_9
*153 net1
*154 net2
*155 net3
*156 net4
*157 net5
*158 net6
*159 net7
*160 net8
*161 net9
*162 net10
*163 net11
*164 net12
*165 net13
*166 net14
*167 net15
*168 net16
*169 net17
*170 net18
*171 net19
*172 net20
*173 net21
*174 net22
*175 net23
*176 net24
*177 net25
*178 net26
*179 net27
*180 net28
*181 net29
*182 net30
*183 net31
*184 net32
*185 net33
*186 net34
*187 net35
*188 net36
*189 net37
*190 net38
*191 net39
*192 net40
*193 net41
*194 net42
*195 net43
*196 net44
*197 net45
*198 net46
*199 net47
*200 net48
*201 net49
*202 net50
*203 net51
*204 net52
*205 _1_
*206 iss\.reseten0_53
*207 FILLER_3_2
*208 FILLER_2_214
*209 dstage\[0\]\.id\.delayen0
*210 dstage\[0\]\.id\.delayen1
*211 dstage\[0\]\.id\.delayenb0
*212 dstage\[0\]\.id\.delayenb1
*213 dstage\[0\]\.id\.delayint0
*214 dstage\[0\]\.id\.trim0bar
*215 dstage\[0\]\.id\.trim1bar
*216 FILLER_2_212
*217 FILLER_2_180
*218 dstage\[10\]\.id\.delayen0
*219 dstage\[10\]\.id\.delayen1
*220 dstage\[10\]\.id\.delayenb0
*221 dstage\[10\]\.id\.delayenb1
*222 dstage\[10\]\.id\.delayint0
*223 dstage\[10\]\.id\.trim0bar
*224 dstage\[10\]\.id\.trim1bar
*225 FILLER_2_162
*226 FILLER_2_130
*227 dstage\[11\]\.id\.delayen0
*228 dstage\[11\]\.id\.delayen1
*229 dstage\[11\]\.id\.delayenb0
*230 dstage\[11\]\.id\.delayenb1
*231 dstage\[11\]\.id\.delayint0
*232 dstage\[11\]\.id\.trim0bar
*233 dstage\[11\]\.id\.trim1bar
*234 FILLER_2_66
*235 FILLER_2_2
*236 dstage\[1\]\.id\.delayen0
*237 dstage\[1\]\.id\.delayen1
*238 dstage\[1\]\.id\.delayenb0
*239 dstage\[1\]\.id\.delayenb1
*240 dstage\[1\]\.id\.delayint0
*241 dstage\[1\]\.id\.trim0bar
*242 dstage\[1\]\.id\.trim1bar
*243 FILLER_1_214
*244 FILLER_1_210
*245 dstage\[2\]\.id\.delayen0
*246 dstage\[2\]\.id\.delayen1
*247 dstage\[2\]\.id\.delayenb0
*248 dstage\[2\]\.id\.delayenb1
*249 dstage\[2\]\.id\.delayint0
*250 dstage\[2\]\.id\.trim0bar
*251 dstage\[2\]\.id\.trim1bar
*252 FILLER_1_194
*253 FILLER_1_130
*254 dstage\[3\]\.id\.delayen0
*255 dstage\[3\]\.id\.delayen1
*256 dstage\[3\]\.id\.delayenb0
*257 dstage\[3\]\.id\.delayenb1
*258 dstage\[3\]\.id\.delayint0
*259 dstage\[3\]\.id\.trim0bar
*260 dstage\[3\]\.id\.trim1bar
*261 FILLER_1_66
*262 FILLER_1_2
*263 dstage\[4\]\.id\.delayen0
*264 dstage\[4\]\.id\.delayen1
*265 dstage\[4\]\.id\.delayenb0
*266 dstage\[4\]\.id\.delayenb1
*267 dstage\[4\]\.id\.delayint0
*268 dstage\[4\]\.id\.trim0bar
*269 dstage\[4\]\.id\.trim1bar
*270 FILLER_0_214
*271 FILLER_0_212
*272 dstage\[5\]\.id\.delayen0
*273 dstage\[5\]\.id\.delayen1
*274 dstage\[5\]\.id\.delayenb0
*275 dstage\[5\]\.id\.delayenb1
*276 dstage\[5\]\.id\.delayint0
*277 dstage\[5\]\.id\.trim0bar
*278 dstage\[5\]\.id\.trim1bar
*279 FILLER_0_180
*280 FILLER_0_162
*281 dstage\[6\]\.id\.delayen0
*282 dstage\[6\]\.id\.delayen1
*283 dstage\[6\]\.id\.delayenb0
*284 dstage\[6\]\.id\.delayenb1
*285 dstage\[6\]\.id\.delayint0
*286 dstage\[6\]\.id\.trim0bar
*287 dstage\[6\]\.id\.trim1bar
*288 FILLER_0_130
*289 FILLER_0_66
*290 dstage\[7\]\.id\.delayen0
*291 dstage\[7\]\.id\.delayen1
*292 dstage\[7\]\.id\.delayenb0
*293 dstage\[7\]\.id\.delayenb1
*294 dstage\[7\]\.id\.delayint0
*295 dstage\[7\]\.id\.trim0bar
*296 dstage\[7\]\.id\.trim1bar
*297 FILLER_0_2
*298 output57
*299 dstage\[8\]\.id\.delayen0
*300 dstage\[8\]\.id\.delayen1
*301 dstage\[8\]\.id\.delayenb0
*302 dstage\[8\]\.id\.delayenb1
*303 dstage\[8\]\.id\.delayint0
*304 dstage\[8\]\.id\.trim0bar
*305 dstage\[8\]\.id\.trim1bar
*306 output56
*307 input55
*308 dstage\[9\]\.id\.delayen0
*309 dstage\[9\]\.id\.delayen1
*310 dstage\[9\]\.id\.delayenb0
*311 dstage\[9\]\.id\.delayenb1
*312 dstage\[9\]\.id\.delayint0
*313 dstage\[9\]\.id\.trim0bar
*314 dstage\[9\]\.id\.trim1bar
*315 ibufp00
*316 ibufp01
*317 ibufp10
*318 ibufp11
*319 PHY_EDGE_ROW_0_Right_0
*320 iss\.ctrlen0
*321 input54
*322 iss\.delayen0
*323 iss\.delayen1
*324 iss\.delayenb0
*325 iss\.delayenb1
*326 iss\.delayint0
*327 iss\.reseten0
*328 iss\.trim1bar
*329 dstage\[0\]\.id\.delayen0_1
*330 dstage\[0\]\.id\.delayen1_2
*331 dstage\[0\]\.id\.trim0bar_3
*332 dstage\[0\]\.id\.trim1bar_4
*333 dstage\[10\]\.id\.delayen0_5
*334 dstage\[10\]\.id\.delayen1_6
*335 dstage\[10\]\.id\.trim0bar_7
*336 dstage\[10\]\.id\.trim1bar_8
*337 dstage\[11\]\.id\.delayen0_9
*338 dstage\[11\]\.id\.delayen1_10
*339 dstage\[11\]\.id\.trim0bar_11
*340 dstage\[11\]\.id\.trim1bar_12
*341 dstage\[1\]\.id\.delayen0_13
*342 dstage\[1\]\.id\.delayen1_14
*343 dstage\[1\]\.id\.trim0bar_15
*344 dstage\[1\]\.id\.trim1bar_16
*345 dstage\[2\]\.id\.delayen0_17
*346 dstage\[2\]\.id\.delayen1_18
*347 dstage\[2\]\.id\.trim0bar_19
*348 dstage\[2\]\.id\.trim1bar_20
*349 dstage\[3\]\.id\.delayen0_21
*350 dstage\[3\]\.id\.delayen1_22
*351 dstage\[3\]\.id\.trim0bar_23
*352 dstage\[3\]\.id\.trim1bar_24
*353 dstage\[4\]\.id\.delayen0_25
*354 dstage\[4\]\.id\.delayen1_26
*355 dstage\[4\]\.id\.trim0bar_27
*356 dstage\[4\]\.id\.trim1bar_28
*357 dstage\[5\]\.id\.delayen0_29
*358 dstage\[5\]\.id\.delayen1_30
*359 dstage\[5\]\.id\.trim0bar_31
*360 dstage\[5\]\.id\.trim1bar_32
*361 dstage\[6\]\.id\.delayen0_33
*362 dstage\[6\]\.id\.delayen1_34
*363 dstage\[6\]\.id\.trim0bar_35
*364 dstage\[6\]\.id\.trim1bar_36
*365 dstage\[7\]\.id\.delayen0_37
*366 dstage\[7\]\.id\.delayen1_38
*367 dstage\[7\]\.id\.trim0bar_39
*368 dstage\[7\]\.id\.trim1bar_40
*369 dstage\[8\]\.id\.delayen0_41
*370 dstage\[8\]\.id\.delayen1_42
*371 dstage\[8\]\.id\.trim0bar_43
*372 dstage\[8\]\.id\.trim1bar_44
*373 dstage\[9\]\.id\.delayen0_45
*374 dstage\[9\]\.id\.delayen1_46
*375 dstage\[9\]\.id\.trim0bar_47
*376 dstage\[9\]\.id\.trim1bar_48
*377 iss\.ctrlen0_49
*378 iss\.delayen0_50
*379 iss\.delayen1_51
*380 iss\.trim1bar_52
*381 PHY_EDGE_ROW_1_Right_1
*382 PHY_EDGE_ROW_2_Right_2
*383 PHY_EDGE_ROW_3_Right_3
*384 PHY_EDGE_ROW_4_Right_4
*385 PHY_EDGE_ROW_5_Right_5
*386 PHY_EDGE_ROW_6_Right_6
*387 PHY_EDGE_ROW_7_Right_7
*388 PHY_EDGE_ROW_8_Right_8
*389 PHY_EDGE_ROW_9_Right_9
*390 PHY_EDGE_ROW_10_Right_10
*391 PHY_EDGE_ROW_11_Right_11
*392 PHY_EDGE_ROW_12_Right_12
*393 PHY_EDGE_ROW_13_Right_13
*394 PHY_EDGE_ROW_14_Right_14
*395 PHY_EDGE_ROW_15_Right_15
*396 PHY_EDGE_ROW_16_Right_16
*397 PHY_EDGE_ROW_17_Right_17
*398 PHY_EDGE_ROW_18_Right_18
*399 PHY_EDGE_ROW_19_Right_19
*400 PHY_EDGE_ROW_20_Right_20
*401 PHY_EDGE_ROW_21_Right_21
*402 PHY_EDGE_ROW_22_Right_22
*403 PHY_EDGE_ROW_23_Right_23
*404 PHY_EDGE_ROW_24_Right_24
*405 PHY_EDGE_ROW_25_Right_25
*406 PHY_EDGE_ROW_26_Right_26
*407 PHY_EDGE_ROW_27_Right_27
*408 PHY_EDGE_ROW_28_Right_28
*409 PHY_EDGE_ROW_29_Right_29
*410 PHY_EDGE_ROW_0_Left_30
*411 PHY_EDGE_ROW_1_Left_31
*412 PHY_EDGE_ROW_2_Left_32
*413 PHY_EDGE_ROW_3_Left_33
*414 PHY_EDGE_ROW_4_Left_34
*415 PHY_EDGE_ROW_5_Left_35
*416 PHY_EDGE_ROW_6_Left_36
*417 PHY_EDGE_ROW_7_Left_37
*418 PHY_EDGE_ROW_8_Left_38
*419 PHY_EDGE_ROW_9_Left_39
*420 PHY_EDGE_ROW_10_Left_40
*421 PHY_EDGE_ROW_11_Left_41
*422 PHY_EDGE_ROW_12_Left_42
*423 PHY_EDGE_ROW_13_Left_43
*424 PHY_EDGE_ROW_14_Left_44
*425 PHY_EDGE_ROW_15_Left_45
*426 PHY_EDGE_ROW_16_Left_46
*427 PHY_EDGE_ROW_17_Left_47
*428 PHY_EDGE_ROW_18_Left_48
*429 PHY_EDGE_ROW_19_Left_49
*430 PHY_EDGE_ROW_20_Left_50
*431 PHY_EDGE_ROW_21_Left_51
*432 PHY_EDGE_ROW_22_Left_52
*433 PHY_EDGE_ROW_23_Left_53
*434 PHY_EDGE_ROW_24_Left_54
*435 PHY_EDGE_ROW_25_Left_55
*436 PHY_EDGE_ROW_26_Left_56
*437 PHY_EDGE_ROW_27_Left_57
*438 PHY_EDGE_ROW_28_Left_58
*439 PHY_EDGE_ROW_29_Left_59
*440 TAP_TAPCELL_ROW_0_60
*441 TAP_TAPCELL_ROW_2_61
*442 TAP_TAPCELL_ROW_4_62
*443 TAP_TAPCELL_ROW_6_63
*444 TAP_TAPCELL_ROW_8_64
*445 TAP_TAPCELL_ROW_10_65
*446 TAP_TAPCELL_ROW_12_66
*447 TAP_TAPCELL_ROW_14_67
*448 TAP_TAPCELL_ROW_16_68
*449 TAP_TAPCELL_ROW_18_69
*450 TAP_TAPCELL_ROW_20_70
*451 TAP_TAPCELL_ROW_22_71
*452 TAP_TAPCELL_ROW_24_72
*453 TAP_TAPCELL_ROW_26_73
*454 TAP_TAPCELL_ROW_28_74
*455 TAP_TAPCELL_ROW_29_75
*456 FILLER_3_66
*457 FILLER_3_130
*458 FILLER_3_194
*459 FILLER_3_210
*460 FILLER_3_214
*461 FILLER_4_2
*462 FILLER_4_66
*463 FILLER_4_130
*464 FILLER_4_162
*465 FILLER_4_180
*466 FILLER_4_212
*467 FILLER_4_214
*468 FILLER_5_2
*469 FILLER_5_66
*470 FILLER_5_130
*471 FILLER_5_194
*472 FILLER_5_210
*473 FILLER_5_214
*474 FILLER_6_2
*475 FILLER_6_66
*476 FILLER_6_130
*477 FILLER_6_162
*478 FILLER_6_180
*479 FILLER_6_212
*480 FILLER_6_214
*481 FILLER_7_2
*482 FILLER_7_66
*483 FILLER_7_130
*484 FILLER_7_194
*485 FILLER_7_210
*486 FILLER_7_214
*487 FILLER_8_2
*488 FILLER_8_66
*489 FILLER_8_130
*490 FILLER_8_162
*491 FILLER_8_180
*492 FILLER_8_212
*493 FILLER_8_214
*494 FILLER_9_2
*495 FILLER_9_66
*496 FILLER_9_130
*497 FILLER_9_194
*498 FILLER_9_210
*499 FILLER_9_214
*500 FILLER_10_2
*501 FILLER_10_66
*502 FILLER_10_98
*503 FILLER_10_100
*504 FILLER_10_109
*505 FILLER_10_141
*506 FILLER_10_143
*507 FILLER_10_152
*508 FILLER_10_168
*509 FILLER_10_176
*510 FILLER_10_180
*511 FILLER_10_212
*512 FILLER_10_214
*513 FILLER_11_2
*514 FILLER_11_66
*515 FILLER_11_98
*516 FILLER_11_106
*517 FILLER_11_171
*518 FILLER_11_203
*519 FILLER_11_211
*520 FILLER_12_2
*521 FILLER_12_66
*522 FILLER_12_98
*523 FILLER_12_102
*524 FILLER_12_125
*525 FILLER_12_129
*526 FILLER_12_131
*527 FILLER_12_142
*528 FILLER_12_171
*529 FILLER_12_175
*530 FILLER_12_177
*531 FILLER_12_180
*532 FILLER_12_212
*533 FILLER_12_214
*534 FILLER_13_2
*535 FILLER_13_66
*536 FILLER_13_98
*537 FILLER_13_148
*538 FILLER_13_170
*539 FILLER_13_202
*540 FILLER_13_210
*541 FILLER_13_214
*542 FILLER_14_2
*543 FILLER_14_18
*544 FILLER_14_26
*545 FILLER_14_28
*546 FILLER_14_61
*547 FILLER_14_125
*548 FILLER_14_133
*549 FILLER_14_135
*550 FILLER_14_175
*551 FILLER_14_177
*552 FILLER_14_180
*553 FILLER_14_212
*554 FILLER_14_214
*555 FILLER_15_2
*556 FILLER_15_18
*557 FILLER_15_26
*558 FILLER_15_30
*559 FILLER_15_32
*560 FILLER_15_54
*561 FILLER_15_62
*562 FILLER_15_64
*563 FILLER_15_71
*564 FILLER_15_111
*565 FILLER_15_127
*566 FILLER_15_139
*567 FILLER_15_171
*568 FILLER_15_179
*569 FILLER_15_183
*570 FILLER_15_188
*571 FILLER_15_209
*572 FILLER_15_213
*573 FILLER_16_2
*574 FILLER_16_34
*575 FILLER_16_50
*576 FILLER_16_83
*577 FILLER_16_134
*578 FILLER_16_142
*579 FILLER_16_144
*580 FILLER_16_153
*581 FILLER_16_169
*582 FILLER_16_177
*583 FILLER_16_180
*584 FILLER_16_213
*585 FILLER_17_2
*586 FILLER_17_10
*587 FILLER_17_28
*588 FILLER_17_40
*589 FILLER_17_44
*590 FILLER_17_46
*591 FILLER_17_53
*592 FILLER_17_85
*593 FILLER_17_101
*594 FILLER_17_109
*595 FILLER_17_132
*596 FILLER_17_148
*597 FILLER_17_188
*598 FILLER_17_210
*599 FILLER_17_214
*600 FILLER_18_2
*601 FILLER_18_4
*602 FILLER_18_54
*603 FILLER_18_62
*604 FILLER_18_64
*605 FILLER_18_82
*606 FILLER_18_96
*607 FILLER_18_112
*608 FILLER_18_120
*609 FILLER_18_124
*610 FILLER_18_132
*611 FILLER_18_140
*612 FILLER_18_180
*613 FILLER_18_188
*614 FILLER_18_192
*615 FILLER_18_194
*616 FILLER_18_212
*617 FILLER_18_214
*618 FILLER_19_2
*619 FILLER_19_6
*620 FILLER_19_12
*621 FILLER_19_44
*622 FILLER_19_52
*623 FILLER_19_86
*624 FILLER_19_104
*625 FILLER_19_138
*626 FILLER_19_167
*627 FILLER_19_174
*628 FILLER_20_2
*629 FILLER_20_14
*630 FILLER_20_16
*631 FILLER_20_56
*632 FILLER_20_60
*633 FILLER_20_62
*634 FILLER_20_67
*635 FILLER_20_83
*636 FILLER_20_91
*637 FILLER_20_99
*638 FILLER_20_103
*639 FILLER_20_129
*640 FILLER_20_145
*641 FILLER_20_153
*642 FILLER_20_157
*643 FILLER_20_159
*644 FILLER_20_164
*645 FILLER_20_172
*646 FILLER_20_176
*647 FILLER_20_188
*648 FILLER_20_192
*649 FILLER_20_194
*650 FILLER_20_199
*651 FILLER_21_2
*652 FILLER_21_6
*653 FILLER_21_12
*654 FILLER_21_28
*655 FILLER_21_36
*656 FILLER_21_40
*657 FILLER_21_108
*658 FILLER_21_114
*659 FILLER_21_178
*660 FILLER_21_210
*661 FILLER_21_214
*662 FILLER_22_41
*663 FILLER_22_43
*664 FILLER_22_48
*665 FILLER_22_64
*666 FILLER_22_72
*667 FILLER_22_76
*668 FILLER_22_78
*669 FILLER_22_83
*670 FILLER_22_101
*671 FILLER_22_109
*672 FILLER_22_119
*673 FILLER_22_127
*674 FILLER_22_131
*675 FILLER_22_133
*676 FILLER_22_151
*677 FILLER_22_167
*678 FILLER_22_175
*679 FILLER_22_177
*680 FILLER_22_188
*681 FILLER_22_211
*682 FILLER_23_2
*683 FILLER_23_29
*684 FILLER_23_37
*685 FILLER_23_41
*686 FILLER_23_46
*687 FILLER_23_78
*688 FILLER_23_80
*689 FILLER_23_91
*690 FILLER_23_99
*691 FILLER_23_109
*692 FILLER_23_113
*693 FILLER_23_115
*694 FILLER_23_182
*695 FILLER_23_186
*696 FILLER_23_211
*697 FILLER_24_2
*698 FILLER_24_18
*699 FILLER_24_28
*700 FILLER_24_38
*701 FILLER_24_102
*702 FILLER_24_118
*703 FILLER_24_126
*704 FILLER_24_130
*705 FILLER_24_136
*706 FILLER_24_144
*707 FILLER_24_180
*708 FILLER_24_188
*709 FILLER_24_192
*710 FILLER_24_214
*711 FILLER_25_2
*712 FILLER_25_4
*713 FILLER_25_26
*714 FILLER_25_34
*715 FILLER_25_74
*716 FILLER_25_82
*717 FILLER_25_86
*718 FILLER_25_88
*719 FILLER_25_110
*720 FILLER_25_174
*721 FILLER_26_2
*722 FILLER_26_6
*723 FILLER_26_32
*724 FILLER_26_48
*725 FILLER_26_71
*726 FILLER_26_73
*727 FILLER_26_121
*728 FILLER_26_123
*729 FILLER_26_130
*730 FILLER_26_180
*731 FILLER_26_188
*732 FILLER_26_196
*733 FILLER_26_212
*734 FILLER_26_214
*735 FILLER_27_2
*736 FILLER_27_6
*737 FILLER_27_16
*738 FILLER_27_48
*739 FILLER_27_56
*740 FILLER_27_58
*741 FILLER_27_76
*742 FILLER_27_95
*743 FILLER_27_111
*744 FILLER_27_194
*745 FILLER_27_210
*746 FILLER_27_214
*747 FILLER_28_2
*748 FILLER_28_34
*749 FILLER_28_38
*750 FILLER_28_77
*751 FILLER_28_157
*752 FILLER_28_161
*753 FILLER_28_171
*754 FILLER_28_175
*755 FILLER_28_177
*756 FILLER_28_180
*757 FILLER_28_212
*758 FILLER_28_214
*759 FILLER_29_2
*760 FILLER_29_34
*761 FILLER_29_50
*762 FILLER_29_62
*763 FILLER_29_126
*764 FILLER_29_158
*765 FILLER_29_174
*766 FILLER_29_180
*767 FILLER_29_212
*768 FILLER_29_214

*PORTS
clockp[0] O
clockp[1] O
dco I
enable I
ext_trim_0 I
ext_trim_1 I
ext_trim_10 I
ext_trim_11 I
ext_trim_12 I
ext_trim_13 I
ext_trim_14 I
ext_trim_15 I
ext_trim_16 I
ext_trim_17 I
ext_trim_18 I
ext_trim_19 I
ext_trim_2 I
ext_trim_20 I
ext_trim_21 I
ext_trim_22 I
ext_trim_23 I
ext_trim_24 I
ext_trim_25 I
ext_trim_3 I
ext_trim_4 I
ext_trim_5 I
ext_trim_6 I
ext_trim_7 I
ext_trim_8 I
ext_trim_9 I
reset I
trim_0 I
trim_1 I
trim_10 I
trim_11 I
trim_12 I
trim_13 I
trim_14 I
trim_15 I
trim_16 I
trim_17 I
trim_18 I
trim_19 I
trim_2 I
trim_20 I
trim_21 I
trim_22 I
trim_23 I
trim_24 I
trim_25 I
trim_3 I
trim_4 I
trim_5 I
trim_6 I
trim_7 I
trim_8 I
trim_9 I

*D_NET *1 0.000240475
*CONN
*I *327:I I *D gf180mcu_fd_sc_mcu7t5v0__invz_1
*I *206:Z O *D gf180mcu_fd_sc_mcu7t5v0__tieh
*CAP
1 *327:I 0.000120238
2 *206:Z 0.000120238
*RES
1 *206:Z *327:I 9.15496 
*END

*D_NET *2 0.000582299
*CONN
*I *316:I I *D gf180mcu_fd_sc_mcu7t5v0__clkinv_8
*I *315:ZN O *D gf180mcu_fd_sc_mcu7t5v0__clkinv_2
*CAP
1 *316:I 0.000278507
2 *315:ZN 0.000278507
3 *316:I *315:I 2.52855e-05
*RES
1 *315:ZN *316:I 9.97627 
*END

*D_NET *3 0.00155392
*CONN
*I *318:I I *D gf180mcu_fd_sc_mcu7t5v0__clkinv_8
*I *317:ZN O *D gf180mcu_fd_sc_mcu7t5v0__clkinv_2
*CAP
1 *318:I 0.000738673
2 *317:ZN 0.000738673
3 *318:I *236:EN 0
4 *318:I *238:EN 7.01843e-05
5 *318:I *238:I 0
6 *318:I *241:I 6.38938e-06
*RES
1 *317:ZN *318:I 12.2507 
*END

*D_NET *4 0.000335649
*CONN
*I *306:I I *D gf180mcu_fd_sc_mcu7t5v0__dlyd_2
*I *316:ZN O *D gf180mcu_fd_sc_mcu7t5v0__clkinv_8
*CAP
1 *306:I 0.000167825
2 *316:ZN 0.000167825
*RES
1 *316:ZN *306:I 9.15496 
*END

*D_NET *5 0.000310403
*CONN
*I *298:I I *D gf180mcu_fd_sc_mcu7t5v0__dlyd_2
*I *318:ZN O *D gf180mcu_fd_sc_mcu7t5v0__clkinv_8
*CAP
1 *298:I 0.000155202
2 *318:ZN 0.000155202
*RES
1 *318:ZN *298:I 9.15496 
*END

*D_NET *8 0.00114351
*CONN
*I *213:I I *D gf180mcu_fd_sc_mcu7t5v0__clkinv_2
*I *210:ZN O *D gf180mcu_fd_sc_mcu7t5v0__invz_2
*I *212:ZN O *D gf180mcu_fd_sc_mcu7t5v0__invz_4
*CAP
1 *213:I 0.00013048
2 *210:ZN 7.75458e-05
3 *212:ZN 0.000151519
4 *8:8 0.000359546
5 *210:ZN *209:I 0
6 *210:ZN *10:20 0
7 *213:I *209:I 0
8 *213:I *10:18 0
9 *8:8 *210:I 0.000424415
*RES
1 *212:ZN *8:8 9.53403 
2 *8:8 *210:ZN 8.83907 
3 *8:8 *213:I 9.13352 
*END

*D_NET *9 0.00167452
*CONN
*I *209:I I *D gf180mcu_fd_sc_mcu7t5v0__invz_2
*I *213:ZN O *D gf180mcu_fd_sc_mcu7t5v0__clkinv_2
*CAP
1 *209:I 0.000835495
2 *213:ZN 0.000835495
3 *209:I *325:EN 0
4 *209:I *328:I 3.52792e-06
5 *210:ZN *209:I 0
6 *213:I *209:I 0
*RES
1 *213:ZN *209:I 21.6392 
*END

*D_NET *10 0.00881835
*CONN
*I *322:ZN O *D gf180mcu_fd_sc_mcu7t5v0__invz_2
*I *324:ZN O *D gf180mcu_fd_sc_mcu7t5v0__invz_8
*I *210:I I *D gf180mcu_fd_sc_mcu7t5v0__invz_2
*I *212:I I *D gf180mcu_fd_sc_mcu7t5v0__invz_4
*I *315:I I *D gf180mcu_fd_sc_mcu7t5v0__clkinv_2
*I *211:I I *D gf180mcu_fd_sc_mcu7t5v0__invz_8
*I *327:ZN O *D gf180mcu_fd_sc_mcu7t5v0__invz_1
*CAP
1 *322:ZN 0.000172082
2 *324:ZN 0.00016545
3 *210:I 0.000117198
4 *212:I 2.39278e-05
5 *315:I 0.000478427
6 *211:I 0.00024514
7 *327:ZN 0.000707698
8 *10:68 0.000699979
9 *10:24 0.0017732
10 *10:20 0.00132492
11 *10:18 0.000789786
12 *10:16 0.00149137
13 *322:ZN *322:I 6.7338e-06
14 *324:ZN *322:EN 0
15 *324:ZN *324:I 0
16 *10:16 *320:A1 0
17 *10:16 *322:EN 0.000165105
18 *10:16 *324:I 9.94818e-05
19 *10:18 *324:I 4.32685e-05
20 *10:68 *324:I 6.48791e-05
21 *210:ZN *10:20 0
22 *213:I *10:18 0
23 *316:I *315:I 2.52855e-05
24 *8:8 *210:I 0.000424415
*RES
1 *327:ZN *10:16 20.837 
2 *10:16 *10:18 2.33759 
3 *10:18 *10:20 1.32674 
4 *10:20 *10:24 9.09471 
5 *10:24 *211:I 5.24085 
6 *10:24 *315:I 6.56759 
7 *10:20 *212:I 8.5762 
8 *10:18 *210:I 9.40767 
9 *10:16 *10:68 1.4531 
10 *10:68 *324:ZN 9.15496 
11 *10:68 *322:ZN 9.09178 
*END

*D_NET *11 0.00577889
*CONN
*I *237:I I *D gf180mcu_fd_sc_mcu7t5v0__invz_2
*I *238:I I *D gf180mcu_fd_sc_mcu7t5v0__invz_8
*I *239:I I *D gf180mcu_fd_sc_mcu7t5v0__invz_4
*I *209:ZN O *D gf180mcu_fd_sc_mcu7t5v0__invz_2
*I *211:ZN O *D gf180mcu_fd_sc_mcu7t5v0__invz_8
*CAP
1 *237:I 3.83547e-05
2 *238:I 0.000711834
3 *239:I 0.000193365
4 *209:ZN 7.0691e-05
5 *211:ZN 0.000161617
6 *11:23 0.00101715
7 *11:19 0.00144147
8 *11:6 0.00152347
9 *237:I *240:I 1.49066e-06
10 *237:I *31:6 7.45328e-07
11 *238:I *236:EN 2.68726e-05
12 *238:I *237:EN 4.97327e-05
13 *239:I *237:EN 0
14 *239:I *239:EN 0
15 *11:19 *237:ZN 0.000362928
16 *11:23 *237:ZN 0.000179173
17 *318:I *238:I 0
*RES
1 *211:ZN *11:6 4.92496 
2 *11:6 *209:ZN 4.54589 
3 *11:6 *11:19 10.2319 
4 *11:19 *11:23 4.92496 
5 *11:23 *239:I 5.23182 
6 *11:23 *238:I 8.02069 
7 *11:19 *237:I 8.64953 
*END

*D_NET *12 0.00040796
*CONN
*I *211:EN I *D gf180mcu_fd_sc_mcu7t5v0__invz_8
*I *214:ZN O *D gf180mcu_fd_sc_mcu7t5v0__inv_1
*CAP
1 *211:EN 0.00020398
2 *214:ZN 0.00020398
3 *211:EN *236:I 0
*RES
1 *214:ZN *211:EN 9.33095 
*END

*D_NET *13 0.000186093
*CONN
*I *212:EN I *D gf180mcu_fd_sc_mcu7t5v0__invz_4
*I *215:ZN O *D gf180mcu_fd_sc_mcu7t5v0__inv_1
*CAP
1 *212:EN 9.01395e-05
2 *215:ZN 9.01395e-05
3 *212:EN *215:I 5.81405e-06
*RES
1 *215:ZN *212:EN 8.94963 
*END

*D_NET *16 0.00114557
*CONN
*I *222:I I *D gf180mcu_fd_sc_mcu7t5v0__clkinv_2
*I *219:ZN O *D gf180mcu_fd_sc_mcu7t5v0__invz_2
*I *221:ZN O *D gf180mcu_fd_sc_mcu7t5v0__invz_4
*CAP
1 *222:I 0.000230416
2 *219:ZN 0.000288179
3 *221:ZN 0
4 *16:6 0.000518594
5 *219:ZN *218:EN 3.2413e-05
6 *219:ZN *221:I 6.82766e-05
7 *222:I *218:EN 0
8 *222:I *218:I 7.68816e-06
9 *222:I *229:EN 0
*RES
1 *221:ZN *16:6 8.46 
2 *16:6 *219:ZN 9.97627 
3 *16:6 *222:I 9.65361 
*END

*D_NET *17 0.000532465
*CONN
*I *218:I I *D gf180mcu_fd_sc_mcu7t5v0__invz_2
*I *222:ZN O *D gf180mcu_fd_sc_mcu7t5v0__clkinv_2
*CAP
1 *218:I 0.000262389
2 *222:ZN 0.000262389
3 *218:I *229:I 0
4 *222:I *218:I 7.68816e-06
*RES
1 *222:ZN *218:I 9.78674 
*END

*D_NET *18 0.00276027
*CONN
*I *308:ZN O *D gf180mcu_fd_sc_mcu7t5v0__invz_2
*I *219:I I *D gf180mcu_fd_sc_mcu7t5v0__invz_2
*I *221:I I *D gf180mcu_fd_sc_mcu7t5v0__invz_4
*I *220:I I *D gf180mcu_fd_sc_mcu7t5v0__invz_8
*I *310:ZN O *D gf180mcu_fd_sc_mcu7t5v0__invz_8
*CAP
1 *308:ZN 0.000183304
2 *219:I 2.75892e-05
3 *221:I 0.000361962
4 *220:I 0
5 *310:ZN 0.000729383
6 *18:19 0.000612898
7 *18:8 0.000769426
8 *219:I *218:EN 7.43387e-06
9 *221:I *218:EN 0
10 *221:I *219:EN 0
11 *18:8 *220:EN 0
12 *219:ZN *221:I 6.82766e-05
*RES
1 *310:ZN *18:8 6.94666 
2 *18:8 *220:I 4.23 
3 *18:8 *18:19 1.13721 
4 *18:19 *221:I 14.6384 
5 *18:19 *219:I 4.41953 
6 *310:ZN *308:ZN 9.28131 
*END

*D_NET *19 0.00369864
*CONN
*I *229:I I *D gf180mcu_fd_sc_mcu7t5v0__invz_8
*I *228:I I *D gf180mcu_fd_sc_mcu7t5v0__invz_2
*I *230:I I *D gf180mcu_fd_sc_mcu7t5v0__invz_4
*I *218:ZN O *D gf180mcu_fd_sc_mcu7t5v0__invz_2
*I *220:ZN O *D gf180mcu_fd_sc_mcu7t5v0__invz_8
*CAP
1 *229:I 0.000395654
2 *228:I 0.000506625
3 *230:I 3.08107e-05
4 *218:ZN 0.000232192
5 *220:ZN 0.000232192
6 *19:28 0.00113483
7 *19:22 0.00099305
8 *228:I *228:ZN 3.56497e-05
9 *228:I *231:I 2.17158e-05
10 *228:I *24:8 5.61205e-05
11 *229:I *227:EN 0
12 *229:I *229:EN 0
13 *230:I *231:I 2.76836e-06
14 *19:28 *228:EN 5.5729e-05
15 *19:28 *230:EN 1.30432e-06
16 *218:I *229:I 0
*RES
1 *220:ZN *218:ZN 18.1204 
2 *220:ZN *19:22 4.23 
3 *19:22 *19:28 7.00984 
4 *19:28 *230:I 8.57733 
5 *19:28 *228:I 10.3553 
6 *19:22 *229:I 6.44123 
*END

*D_NET *20 0.000352081
*CONN
*I *220:EN I *D gf180mcu_fd_sc_mcu7t5v0__invz_8
*I *223:ZN O *D gf180mcu_fd_sc_mcu7t5v0__inv_1
*CAP
1 *220:EN 0.00017604
2 *223:ZN 0.00017604
3 *18:8 *220:EN 0
*RES
1 *223:ZN *220:EN 9.33095 
*END

*D_NET *21 0.000456935
*CONN
*I *221:EN I *D gf180mcu_fd_sc_mcu7t5v0__invz_4
*I *224:ZN O *D gf180mcu_fd_sc_mcu7t5v0__inv_1
*CAP
1 *221:EN 0.00015583
2 *224:ZN 0.00015583
3 *221:EN *219:EN 0.000145276
*RES
1 *224:ZN *221:EN 9.58367 
*END

*D_NET *24 0.00109918
*CONN
*I *231:I I *D gf180mcu_fd_sc_mcu7t5v0__clkinv_2
*I *228:ZN O *D gf180mcu_fd_sc_mcu7t5v0__invz_2
*I *230:ZN O *D gf180mcu_fd_sc_mcu7t5v0__invz_4
*CAP
1 *231:I 0.000341069
2 *228:ZN 7.68229e-05
3 *230:ZN 5.84323e-05
4 *24:8 0.000476325
5 *231:I *227:I 3.02801e-05
6 *228:I *228:ZN 3.56497e-05
7 *228:I *231:I 2.17158e-05
8 *228:I *24:8 5.61205e-05
9 *230:I *231:I 2.76836e-06
*RES
1 *230:ZN *24:8 4.60907 
2 *24:8 *228:ZN 4.60907 
3 *24:8 *231:I 6.0554 
*END

*D_NET *25 0.000558419
*CONN
*I *227:I I *D gf180mcu_fd_sc_mcu7t5v0__invz_2
*I *231:ZN O *D gf180mcu_fd_sc_mcu7t5v0__clkinv_2
*CAP
1 *227:I 0.000264069
2 *231:ZN 0.000264069
3 *231:I *227:I 3.02801e-05
*RES
1 *231:ZN *227:I 9.71679 
*END

*D_NET *26 0.00467771
*CONN
*I *323:I I *D gf180mcu_fd_sc_mcu7t5v0__invz_2
*I *325:I I *D gf180mcu_fd_sc_mcu7t5v0__invz_4
*I *324:I I *D gf180mcu_fd_sc_mcu7t5v0__invz_8
*I *227:ZN O *D gf180mcu_fd_sc_mcu7t5v0__invz_2
*I *229:ZN O *D gf180mcu_fd_sc_mcu7t5v0__invz_8
*CAP
1 *323:I 0.000128801
2 *325:I 5.46535e-06
3 *324:I 0.000506742
4 *227:ZN 0.000258597
5 *229:ZN 0.000900304
6 *26:40 0.00108261
7 *26:32 0.00134091
8 *227:ZN *227:EN 0
9 *324:I *322:EN 0.000238542
10 *324:I *323:EN 0
11 *325:I *325:EN 0
12 *26:32 *227:EN 0
13 *26:40 *323:EN 8.10018e-06
14 *26:40 *323:ZN 0
15 *26:40 *325:EN 0
16 *324:ZN *324:I 0
17 *10:16 *324:I 9.94818e-05
18 *10:18 *324:I 4.32685e-05
19 *10:68 *324:I 6.48791e-05
*RES
1 *229:ZN *227:ZN 9.66038 
2 *229:ZN *26:32 11.4294 
3 *26:32 *26:40 6.63077 
4 *26:40 *324:I 15.4698 
5 *26:40 *325:I 4.35636 
6 *26:32 *323:I 8.90225 
*END

*D_NET *27 0.000538523
*CONN
*I *229:EN I *D gf180mcu_fd_sc_mcu7t5v0__invz_8
*I *232:ZN O *D gf180mcu_fd_sc_mcu7t5v0__inv_1
*CAP
1 *229:EN 0.000260611
2 *232:ZN 0.000260611
3 *229:EN *232:I 1.73001e-05
4 *222:I *229:EN 0
5 *229:I *229:EN 0
*RES
1 *232:ZN *229:EN 9.89956 
*END

*D_NET *28 0.000191861
*CONN
*I *230:EN I *D gf180mcu_fd_sc_mcu7t5v0__invz_4
*I *233:ZN O *D gf180mcu_fd_sc_mcu7t5v0__inv_1
*CAP
1 *230:EN 9.52782e-05
2 *233:ZN 9.52782e-05
3 *19:28 *230:EN 1.30432e-06
*RES
1 *233:ZN *230:EN 8.94963 
*END

*D_NET *31 0.00154533
*CONN
*I *240:I I *D gf180mcu_fd_sc_mcu7t5v0__clkinv_2
*I *237:ZN O *D gf180mcu_fd_sc_mcu7t5v0__invz_2
*I *239:ZN O *D gf180mcu_fd_sc_mcu7t5v0__invz_4
*CAP
1 *240:I 0.000205113
2 *237:ZN 0.000124145
3 *239:ZN 0.00015032
4 *31:6 0.000479578
5 *240:I *236:I 4.18368e-05
6 *237:I *240:I 1.49066e-06
7 *237:I *31:6 7.45328e-07
8 *11:19 *237:ZN 0.000362928
9 *11:23 *237:ZN 0.000179173
*RES
1 *239:ZN *31:6 4.86178 
2 *31:6 *237:ZN 13.8272 
3 *31:6 *240:I 5.23408 
*END

*D_NET *32 0.000813696
*CONN
*I *236:I I *D gf180mcu_fd_sc_mcu7t5v0__invz_2
*I *240:ZN O *D gf180mcu_fd_sc_mcu7t5v0__clkinv_2
*CAP
1 *236:I 0.00038593
2 *240:ZN 0.00038593
3 *211:EN *236:I 0
4 *240:I *236:I 4.18368e-05
*RES
1 *240:ZN *236:I 10.4749 
*END

*D_NET *33 0.00514926
*CONN
*I *246:I I *D gf180mcu_fd_sc_mcu7t5v0__invz_2
*I *248:I I *D gf180mcu_fd_sc_mcu7t5v0__invz_4
*I *247:I I *D gf180mcu_fd_sc_mcu7t5v0__invz_8
*I *236:ZN O *D gf180mcu_fd_sc_mcu7t5v0__invz_2
*I *238:ZN O *D gf180mcu_fd_sc_mcu7t5v0__invz_8
*CAP
1 *246:I 0
2 *248:I 0.000160447
3 *247:I 0.00074261
4 *236:ZN 0.000239169
5 *238:ZN 0
6 *33:27 0.00132181
7 *33:23 0.00137
8 *33:4 0.00119042
9 *247:I *245:EN 1.25026e-05
10 *247:I *246:EN 2.9378e-06
11 *247:I *40:10 0
12 *248:I *246:EN 7.7723e-05
13 *33:23 *245:I 8.92731e-06
14 *33:27 *245:I 2.27172e-05
15 *33:27 *38:12 0
*RES
1 *238:ZN *33:4 4.23 
2 *33:4 *236:ZN 5.61992 
3 *33:4 *33:23 9.53696 
4 *33:23 *33:27 6.44123 
5 *33:27 *247:I 15.7225 
6 *33:27 *248:I 5.10547 
7 *33:23 *246:I 8.46 
*END

*D_NET *34 0.000212949
*CONN
*I *238:EN I *D gf180mcu_fd_sc_mcu7t5v0__invz_8
*I *241:ZN O *D gf180mcu_fd_sc_mcu7t5v0__inv_1
*CAP
1 *238:EN 6.73325e-05
2 *241:ZN 6.73325e-05
3 *238:EN *241:I 8.10018e-06
4 *318:I *238:EN 7.01843e-05
*RES
1 *241:ZN *238:EN 8.95189 
*END

*D_NET *35 0.000169426
*CONN
*I *239:EN I *D gf180mcu_fd_sc_mcu7t5v0__invz_4
*I *242:ZN O *D gf180mcu_fd_sc_mcu7t5v0__inv_1
*CAP
1 *239:EN 8.47129e-05
2 *242:ZN 8.47129e-05
3 *239:I *239:EN 0
*RES
1 *242:ZN *239:EN 8.94963 
*END

*D_NET *38 0.0010028
*CONN
*I *249:I I *D gf180mcu_fd_sc_mcu7t5v0__clkinv_2
*I *246:ZN O *D gf180mcu_fd_sc_mcu7t5v0__invz_2
*I *248:ZN O *D gf180mcu_fd_sc_mcu7t5v0__invz_4
*CAP
1 *249:I 0
2 *246:ZN 0.00016632
3 *248:ZN 0.000169559
4 *38:12 0.000335879
5 *246:ZN *245:I 0.0001384
6 *38:12 *245:I 0.00019264
7 *33:27 *38:12 0
*RES
1 *248:ZN *38:12 13.7573 
2 *38:12 *246:ZN 5.24762 
3 *38:12 *249:I 4.23 
*END

*D_NET *39 0.00140093
*CONN
*I *245:I I *D gf180mcu_fd_sc_mcu7t5v0__invz_2
*I *249:ZN O *D gf180mcu_fd_sc_mcu7t5v0__clkinv_2
*CAP
1 *245:I 0.000519122
2 *249:ZN 0.000519122
3 *245:I *241:I 0
4 *245:I *246:EN 0
5 *246:ZN *245:I 0.0001384
6 *33:23 *245:I 8.92731e-06
7 *33:27 *245:I 2.27172e-05
8 *38:12 *245:I 0.00019264
*RES
1 *249:ZN *245:I 19.6931 
*END

*D_NET *40 0.00487817
*CONN
*I *245:ZN O *D gf180mcu_fd_sc_mcu7t5v0__invz_2
*I *255:I I *D gf180mcu_fd_sc_mcu7t5v0__invz_2
*I *257:I I *D gf180mcu_fd_sc_mcu7t5v0__invz_4
*I *256:I I *D gf180mcu_fd_sc_mcu7t5v0__invz_8
*I *247:ZN O *D gf180mcu_fd_sc_mcu7t5v0__invz_8
*CAP
1 *245:ZN 0.000161141
2 *255:I 0
3 *257:I 0.000181841
4 *256:I 0.000657816
5 *247:ZN 0
6 *40:12 0.000953836
7 *40:10 0.0013044
8 *40:4 0.00135137
9 *256:I *254:EN 1.91681e-05
10 *256:I *254:ZN 0
11 *256:I *255:EN 0
12 *256:I *258:I 0
13 *256:I *259:I 1.27788e-05
14 *257:I *255:ZN 1.4609e-05
15 *257:I *258:I 3.15259e-06
16 *257:I *45:10 0
17 *40:10 *255:ZN 3.59748e-05
18 *40:10 *45:10 0.000120592
19 *40:12 *255:ZN 6.14848e-05
20 *247:I *40:10 0
*RES
1 *247:ZN *40:4 4.23 
2 *40:4 *40:10 9.78967 
3 *40:10 *40:12 0.694959 
4 *40:12 *256:I 11.6821 
5 *40:12 *257:I 9.33547 
6 *40:10 *255:I 8.46 
7 *40:4 *245:ZN 5.05131 
*END

*D_NET *41 0.00042099
*CONN