*SPEF "ieee 1481-1999"
*DESIGN "ring_osc2x13"
*DATE "13:56:37 Thursday September 25, 2025"
*VENDOR "The OpenROAD Project"
*PROGRAM "OpenROAD"
*VERSION "9f7714859944860f802c7c961ba83ab4ae83849f"
*DESIGN_FLOW "NAME_SCOPE LOCAL" "PIN_CAP NONE"
*DIVIDER /
*DELIMITER :
*BUS_DELIMITER []
*T_UNIT 1 NS
*C_UNIT 1 PF
*R_UNIT 1 OHM
*L_UNIT 1 HENRY

*NAME_MAP
*1 net28
*2 net27
*3 c\[0\]
*4 c\[1\]
*5 net57
*6 net58
*7 dco
*8 net25
*9 dstage\[0\]\.id\.d1
*10 dstage\[0\]\.id\.d2
*11 dstage\[0\]\.id\.in
*12 dstage\[0\]\.id\.out
*13 dstage\[0\]\.id\.trim0b
*14 dstage\[0\]\.id\.trim1b
*15 dstage\[0\]\.id\.trim\[0\]
*16 dstage\[0\]\.id\.trim\[1\]
*17 net26
*18 net23
*19 dstage\[10\]\.id\.d1
*20 dstage\[10\]\.id\.d2
*21 dstage\[10\]\.id\.in
*22 dstage\[10\]\.id\.out
*23 dstage\[10\]\.id\.trim0b
*24 dstage\[10\]\.id\.trim1b
*25 dstage\[10\]\.id\.trim\[0\]
*26 dstage\[10\]\.id\.trim\[1\]
*27 net24
*28 net21
*29 dstage\[11\]\.id\.d1
*30 dstage\[11\]\.id\.d2
*31 dstage\[11\]\.id\.out
*32 dstage\[11\]\.id\.trim0b
*33 dstage\[11\]\.id\.trim1b
*34 dstage\[11\]\.id\.trim\[0\]
*35 dstage\[11\]\.id\.trim\[1\]
*36 net22
*37 net19
*38 dstage\[1\]\.id\.d1
*39 dstage\[1\]\.id\.d2
*40 dstage\[1\]\.id\.out
*41 dstage\[1\]\.id\.trim0b
*42 dstage\[1\]\.id\.trim1b
*43 dstage\[1\]\.id\.trim\[0\]
*44 dstage\[1\]\.id\.trim\[1\]
*45 net20
*46 net17
*47 dstage\[2\]\.id\.d1
*48 dstage\[2\]\.id\.d2
*49 dstage\[2\]\.id\.out
*50 dstage\[2\]\.id\.trim0b
*51 dstage\[2\]\.id\.trim1b
*52 dstage\[2\]\.id\.trim\[0\]
*53 dstage\[2\]\.id\.trim\[1\]
*54 net18
*55 net15
*56 dstage\[3\]\.id\.d1
*57 dstage\[3\]\.id\.d2
*58 dstage\[3\]\.id\.out
*59 dstage\[3\]\.id\.trim0b
*60 dstage\[3\]\.id\.trim1b
*61 dstage\[3\]\.id\.trim\[0\]
*62 dstage\[3\]\.id\.trim\[1\]
*63 net16
*64 net13
*65 dstage\[4\]\.id\.d1
*66 dstage\[4\]\.id\.d2
*67 dstage\[4\]\.id\.out
*68 dstage\[4\]\.id\.trim0b
*69 dstage\[4\]\.id\.trim1b
*70 dstage\[4\]\.id\.trim\[0\]
*71 dstage\[4\]\.id\.trim\[1\]
*72 net14
*73 net11
*74 dstage\[5\]\.id\.d1
*75 dstage\[5\]\.id\.d2
*76 dstage\[5\]\.id\.out
*77 dstage\[5\]\.id\.trim0b
*78 dstage\[5\]\.id\.trim1b
*79 dstage\[5\]\.id\.trim\[0\]
*80 dstage\[5\]\.id\.trim\[1\]
*81 net12
*82 net9
*83 dstage\[6\]\.id\.d1
*84 dstage\[6\]\.id\.d2
*85 dstage\[6\]\.id\.out
*86 dstage\[6\]\.id\.trim0b
*87 dstage\[6\]\.id\.trim1b
*88 dstage\[6\]\.id\.trim\[0\]
*89 dstage\[6\]\.id\.trim\[1\]
*90 net10
*91 net7
*92 dstage\[7\]\.id\.d1
*93 dstage\[7\]\.id\.d2
*94 dstage\[7\]\.id\.out
*95 dstage\[7\]\.id\.trim0b
*96 dstage\[7\]\.id\.trim1b
*97 dstage\[7\]\.id\.trim\[0\]
*98 dstage\[7\]\.id\.trim\[1\]
*99 net8
*100 net5
*101 dstage\[8\]\.id\.d1
*102 dstage\[8\]\.id\.d2
*103 dstage\[8\]\.id\.out
*104 dstage\[8\]\.id\.trim0b
*105 dstage\[8\]\.id\.trim1b
*106 dstage\[8\]\.id\.trim\[0\]
*107 dstage\[8\]\.id\.trim\[1\]
*108 net6
*109 net3
*110 dstage\[9\]\.id\.d1
*111 dstage\[9\]\.id\.d2
*112 dstage\[9\]\.id\.trim0b
*113 dstage\[9\]\.id\.trim1b
*114 dstage\[9\]\.id\.trim\[0\]
*115 dstage\[9\]\.id\.trim\[1\]
*116 net4
*117 enable
*118 ext_trim[0]
*119 ext_trim[10]
*120 ext_trim[11]
*121 ext_trim[12]
*122 ext_trim[13]
*123 ext_trim[14]
*124 ext_trim[15]
*125 ext_trim[16]
*126 ext_trim[17]
*127 ext_trim[18]
*128 ext_trim[19]
*129 ext_trim[1]
*130 ext_trim[20]
*131 ext_trim[21]
*132 ext_trim[22]
*133 ext_trim[23]
*134 ext_trim[24]
*135 ext_trim[25]
*136 ext_trim[2]
*137 ext_trim[3]
*138 ext_trim[4]
*139 ext_trim[5]
*140 ext_trim[6]
*141 ext_trim[7]
*142 ext_trim[8]
*143 ext_trim[9]
*144 ireset
*145 iss\.ctrl0b
*146 net2
*147 iss\.d1
*148 iss\.d2
*150 iss\.trim1b
*151 iss\.trim\[0\]
*152 iss\.trim\[1\]
*153 reset
*154 trim[0]
*155 trim[10]
*156 trim[11]
*157 trim[12]
*158 trim[13]
*159 trim[14]
*160 trim[15]
*161 trim[16]
*162 trim[17]
*163 trim[18]
*164 trim[19]
*165 trim[1]
*166 trim[20]
*167 trim[21]
*168 trim[22]
*169 trim[23]
*170 trim[24]
*171 trim[25]
*172 trim[2]
*173 trim[3]
*174 trim[4]
*175 trim[5]
*176 trim[6]
*177 trim[7]
*178 trim[8]
*179 trim[9]
*180 net1
*182 net29
*183 net30
*184 net31
*185 net32
*186 net33
*187 net34
*188 net35
*189 net36
*190 net37
*191 net38
*192 net39
*193 net40
*194 net41
*195 net42
*196 net43
*197 net44
*198 net45
*199 net46
*200 net47
*201 net48
*202 net49
*203 net50
*204 net51
*205 net52
*206 net53
*207 net54
*208 net55
*209 net56
*210 clockp[0]
*211 clockp[1]
*212 _02_
*213 input28
*214 _04_
*215 _05_
*216 _06_
*217 _07_
*218 _08_
*219 _09_
*220 _10_
*221 _11_
*222 _12_
*223 _13_
*224 input27
*225 _15_
*226 _16_
*227 _17_
*228 _18_
*229 _19_
*230 _20_
*231 _21_
*232 _22_
*233 _23_
*234 _24_
*235 _25_
*236 _26_
*237 _27_
*238 _28_
*239 _29_
*240 _30_
*241 input26
*242 input25
*243 dstage\[0\]\.id\.delayen0
*244 dstage\[0\]\.id\.delayen1
*245 dstage\[0\]\.id\.delayenb0
*246 dstage\[0\]\.id\.delayenb1
*247 dstage\[0\]\.id\.delayint0
*248 dstage\[0\]\.id\.trim0bar
*249 dstage\[0\]\.id\.trim1bar
*250 input24
*251 input23
*252 dstage\[10\]\.id\.delayen0
*253 dstage\[10\]\.id\.delayen1
*254 dstage\[10\]\.id\.delayenb0
*255 dstage\[10\]\.id\.delayenb1
*256 dstage\[10\]\.id\.delayint0
*257 dstage\[10\]\.id\.trim0bar
*258 dstage\[10\]\.id\.trim1bar
*259 input22
*260 input21
*261 dstage\[11\]\.id\.delayen0
*262 dstage\[11\]\.id\.delayen1
*263 dstage\[11\]\.id\.delayenb0
*264 dstage\[11\]\.id\.delayenb1
*265 dstage\[11\]\.id\.delayint0
*266 dstage\[11\]\.id\.trim0bar
*267 dstage\[11\]\.id\.trim1bar
*268 input20
*269 input19
*270 dstage\[1\]\.id\.delayen0
*271 dstage\[1\]\.id\.delayen1
*272 dstage\[1\]\.id\.delayenb0
*273 dstage\[1\]\.id\.delayenb1
*274 dstage\[1\]\.id\.delayint0
*275 dstage\[1\]\.id\.trim0bar
*276 dstage\[1\]\.id\.trim1bar
*277 input18
*278 input17
*279 dstage\[2\]\.id\.delayen0
*280 dstage\[2\]\.id\.delayen1
*281 dstage\[2\]\.id\.delayenb0
*282 dstage\[2\]\.id\.delayenb1
*283 dstage\[2\]\.id\.delayint0
*284 dstage\[2\]\.id\.trim0bar
*285 dstage\[2\]\.id\.trim1bar
*286 input16
*287 input15
*288 dstage\[3\]\.id\.delayen0
*289 dstage\[3\]\.id\.delayen1
*290 dstage\[3\]\.id\.delayenb0
*291 dstage\[3\]\.id\.delayenb1
*292 dstage\[3\]\.id\.delayint0
*293 dstage\[3\]\.id\.trim0bar
*294 dstage\[3\]\.id\.trim1bar
*295 input14
*296 input13
*297 dstage\[4\]\.id\.delayen0
*298 dstage\[4\]\.id\.delayen1
*299 dstage\[4\]\.id\.delayenb0
*300 dstage\[4\]\.id\.delayenb1
*301 dstage\[4\]\.id\.delayint0
*302 dstage\[4\]\.id\.trim0bar
*303 dstage\[4\]\.id\.trim1bar
*304 input12
*305 input11
*306 dstage\[5\]\.id\.delayen0
*307 dstage\[5\]\.id\.delayen1
*308 dstage\[5\]\.id\.delayenb0
*309 dstage\[5\]\.id\.delayenb1
*310 dstage\[5\]\.id\.delayint0
*311 dstage\[5\]\.id\.trim0bar
*312 dstage\[5\]\.id\.trim1bar
*313 input10
*314 input9
*315 dstage\[6\]\.id\.delayen0
*316 dstage\[6\]\.id\.delayen1
*317 dstage\[6\]\.id\.delayenb0
*318 dstage\[6\]\.id\.delayenb1
*319 dstage\[6\]\.id\.delayint0
*320 dstage\[6\]\.id\.trim0bar
*321 dstage\[6\]\.id\.trim1bar
*322 input8
*323 input7
*324 dstage\[7\]\.id\.delayen0
*325 dstage\[7\]\.id\.delayen1
*326 dstage\[7\]\.id\.delayenb0
*327 dstage\[7\]\.id\.delayenb1
*328 dstage\[7\]\.id\.delayint0
*329 dstage\[7\]\.id\.trim0bar
*330 dstage\[7\]\.id\.trim1bar
*331 input6
*332 input5
*333 dstage\[8\]\.id\.delayen0
*334 dstage\[8\]\.id\.delayen1
*335 dstage\[8\]\.id\.delayenb0
*336 dstage\[8\]\.id\.delayenb1
*337 dstage\[8\]\.id\.delayint0
*338 dstage\[8\]\.id\.trim0bar
*339 dstage\[8\]\.id\.trim1bar
*340 input4
*341 input3
*342 dstage\[9\]\.id\.delayen0
*343 dstage\[9\]\.id\.delayen1
*344 dstage\[9\]\.id\.delayenb0
*345 dstage\[9\]\.id\.delayenb1
*346 dstage\[9\]\.id\.delayint0
*347 dstage\[9\]\.id\.trim0bar
*348 dstage\[9\]\.id\.trim1bar
*349 ibufp00
*350 ibufp01
*351 ibufp10
*352 ibufp11
*353 PHY_EDGE_ROW_0_Right_0
*354 iss\.ctrlen0
*355 input2
*356 iss\.delayen0
*357 iss\.delayen1
*358 iss\.delayenb0
*359 iss\.delayenb1
*360 iss\.delayint0
*361 iss\.reseten0
*362 iss\.trim1bar
*363 iss\.reseten0_1
*364 PHY_EDGE_ROW_1_Right_1
*365 PHY_EDGE_ROW_2_Right_2
*366 PHY_EDGE_ROW_3_Right_3
*367 PHY_EDGE_ROW_4_Right_4
*368 PHY_EDGE_ROW_5_Right_5
*369 PHY_EDGE_ROW_6_Right_6
*370 PHY_EDGE_ROW_7_Right_7
*371 PHY_EDGE_ROW_8_Right_8
*372 PHY_EDGE_ROW_9_Right_9
*373 PHY_EDGE_ROW_10_Right_10
*374 PHY_EDGE_ROW_11_Right_11
*375 PHY_EDGE_ROW_12_Right_12
*376 PHY_EDGE_ROW_13_Right_13
*377 PHY_EDGE_ROW_14_Right_14
*378 PHY_EDGE_ROW_15_Right_15
*379 PHY_EDGE_ROW_16_Right_16
*380 PHY_EDGE_ROW_17_Right_17
*381 PHY_EDGE_ROW_18_Right_18
*382 PHY_EDGE_ROW_19_Right_19
*383 PHY_EDGE_ROW_20_Right_20
*384 PHY_EDGE_ROW_21_Right_21
*385 PHY_EDGE_ROW_22_Right_22
*386 PHY_EDGE_ROW_23_Right_23
*387 PHY_EDGE_ROW_24_Right_24
*388 PHY_EDGE_ROW_25_Right_25
*389 PHY_EDGE_ROW_26_Right_26
*390 PHY_EDGE_ROW_27_Right_27
*391 PHY_EDGE_ROW_28_Right_28
*392 PHY_EDGE_ROW_29_Right_29
*393 PHY_EDGE_ROW_30_Right_30
*394 PHY_EDGE_ROW_31_Right_31
*395 PHY_EDGE_ROW_32_Right_32
*396 PHY_EDGE_ROW_33_Right_33
*397 PHY_EDGE_ROW_0_Left_34
*398 PHY_EDGE_ROW_1_Left_35
*399 PHY_EDGE_ROW_2_Left_36
*400 PHY_EDGE_ROW_3_Left_37
*401 PHY_EDGE_ROW_4_Left_38
*402 PHY_EDGE_ROW_5_Left_39
*403 PHY_EDGE_ROW_6_Left_40
*404 PHY_EDGE_ROW_7_Left_41
*405 PHY_EDGE_ROW_8_Left_42
*406 PHY_EDGE_ROW_9_Left_43
*407 PHY_EDGE_ROW_10_Left_44
*408 PHY_EDGE_ROW_11_Left_45
*409 PHY_EDGE_ROW_12_Left_46
*410 PHY_EDGE_ROW_13_Left_47
*411 PHY_EDGE_ROW_14_Left_48
*412 PHY_EDGE_ROW_15_Left_49
*413 PHY_EDGE_ROW_16_Left_50
*414 PHY_EDGE_ROW_17_Left_51
*415 PHY_EDGE_ROW_18_Left_52
*416 PHY_EDGE_ROW_19_Left_53
*417 PHY_EDGE_ROW_20_Left_54
*418 PHY_EDGE_ROW_21_Left_55
*419 PHY_EDGE_ROW_22_Left_56
*420 PHY_EDGE_ROW_23_Left_57
*421 PHY_EDGE_ROW_24_Left_58
*422 PHY_EDGE_ROW_25_Left_59
*423 PHY_EDGE_ROW_26_Left_60
*424 PHY_EDGE_ROW_27_Left_61
*425 PHY_EDGE_ROW_28_Left_62
*426 PHY_EDGE_ROW_29_Left_63
*427 PHY_EDGE_ROW_30_Left_64
*428 PHY_EDGE_ROW_31_Left_65
*429 PHY_EDGE_ROW_32_Left_66
*430 PHY_EDGE_ROW_33_Left_67
*431 TAP_TAPCELL_ROW_0_68
*432 TAP_TAPCELL_ROW_2_69
*433 TAP_TAPCELL_ROW_4_70
*434 TAP_TAPCELL_ROW_6_71
*435 TAP_TAPCELL_ROW_8_72
*436 TAP_TAPCELL_ROW_10_73
*437 TAP_TAPCELL_ROW_12_74
*438 TAP_TAPCELL_ROW_14_75
*439 TAP_TAPCELL_ROW_16_76
*440 TAP_TAPCELL_ROW_18_77
*441 TAP_TAPCELL_ROW_20_78
*442 TAP_TAPCELL_ROW_22_79
*443 TAP_TAPCELL_ROW_24_80
*444 TAP_TAPCELL_ROW_26_81
*445 TAP_TAPCELL_ROW_28_82
*446 TAP_TAPCELL_ROW_30_83
*447 TAP_TAPCELL_ROW_32_84
*448 TAP_TAPCELL_ROW_33_85
*449 input29
*450 input30
*451 input31
*452 input32
*453 input33
*454 input34
*455 input35
*456 input36
*457 input37
*458 input38
*459 input39
*460 input40
*461 input41
*462 input42
*463 input43
*464 input44
*465 input45
*466 input46
*467 input47
*468 input48
*469 input49
*470 input50
*471 input51
*472 input52
*473 input53
*474 input54
*475 input55
*476 input56
*477 output57
*478 output58
*479 FILLER_0_2
*480 FILLER_0_66
*481 FILLER_0_130
*482 FILLER_0_162
*483 FILLER_0_180
*484 FILLER_0_244
*485 FILLER_1_2
*486 FILLER_1_66
*487 FILLER_1_130
*488 FILLER_1_146
*489 FILLER_1_164
*490 FILLER_1_196
*491 FILLER_1_204
*492 FILLER_1_206
*493 FILLER_1_224
*494 FILLER_1_240
*495 FILLER_1_244
*496 FILLER_2_2
*497 FILLER_2_66
*498 FILLER_2_98
*499 FILLER_2_114
*500 FILLER_2_122
*501 FILLER_2_126
*502 FILLER_2_171
*503 FILLER_2_175
*504 FILLER_2_177
*505 FILLER_2_180
*506 FILLER_2_196
*507 FILLER_2_198
*508 FILLER_2_203
*509 FILLER_2_244
*510 FILLER_3_2
*511 FILLER_3_66
*512 FILLER_3_130
*513 FILLER_3_146
*514 FILLER_3_164
*515 FILLER_3_166
*516 FILLER_3_173
*517 FILLER_3_189
*518 FILLER_3_191
*519 FILLER_3_196
*520 FILLER_3_198
*521 FILLER_3_240
*522 FILLER_3_244
*523 FILLER_4_2
*524 FILLER_4_66
*525 FILLER_4_98
*526 FILLER_4_114
*527 FILLER_4_122
*528 FILLER_4_126
*529 FILLER_4_171
*530 FILLER_4_175
*531 FILLER_4_177
*532 FILLER_4_237
*533 FILLER_5_2
*534 FILLER_5_66
*535 FILLER_5_98
*536 FILLER_5_114
*537 FILLER_5_122
*538 FILLER_5_126
*539 FILLER_5_128
*540 FILLER_5_165
*541 FILLER_5_181
*542 FILLER_5_185
*543 FILLER_5_223
*544 FILLER_5_239
*545 FILLER_5_243
*546 FILLER_6_2
*547 FILLER_6_66
*548 FILLER_6_82
*549 FILLER_6_107
*550 FILLER_6_109
*551 FILLER_6_134
*552 FILLER_6_166
*553 FILLER_6_174
*554 FILLER_6_180
*555 FILLER_6_218
*556 FILLER_6_234
*557 FILLER_6_242
*558 FILLER_6_244
*559 FILLER_7_2
*560 FILLER_7_66
*561 FILLER_7_74
*562 FILLER_7_78
*563 FILLER_7_128
*564 FILLER_7_136
*565 FILLER_7_224
*566 FILLER_7_240
*567 FILLER_7_244
*568 FILLER_8_2
*569 FILLER_8_66
*570 FILLER_8_74
*571 FILLER_8_78
*572 FILLER_8_108
*573 FILLER_8_112
*574 FILLER_8_117
*575 FILLER_8_136
*576 FILLER_8_168
*577 FILLER_8_176
*578 FILLER_8_180
*579 FILLER_8_196
*580 FILLER_8_198
*581 FILLER_8_238
*582 FILLER_8_242
*583 FILLER_8_244
*584 FILLER_9_2
*585 FILLER_9_34
*586 FILLER_9_50
*587 FILLER_9_58
*588 FILLER_9_116
*589 FILLER_9_180
*590 FILLER_9_188
*591 FILLER_9_192
*592 FILLER_9_194
*593 FILLER_9_199
*594 FILLER_9_223
*595 FILLER_9_239
*596 FILLER_9_243
*597 FILLER_10_2
*598 FILLER_10_34
*599 FILLER_10_50
*600 FILLER_10_58
*601 FILLER_10_60
*602 FILLER_10_65
*603 FILLER_10_69
*604 FILLER_10_71
*605 FILLER_10_95
*606 FILLER_10_111
*607 FILLER_10_119
*608 FILLER_10_123
*609 FILLER_10_139
*610 FILLER_10_171
*611 FILLER_10_175
*612 FILLER_10_177
*613 FILLER_10_180
*614 FILLER_10_184
*615 FILLER_10_218
*616 FILLER_10_234
*617 FILLER_10_242
*618 FILLER_10_244
*619 FILLER_11_2
*620 FILLER_11_18
*621 FILLER_11_26
*622 FILLER_11_30
*623 FILLER_11_37
*624 FILLER_11_69
*625 FILLER_11_85
*626 FILLER_11_93
*627 FILLER_11_133
*628 FILLER_11_152
*629 FILLER_11_192
*630 FILLER_11_200
*631 FILLER_11_225
*632 FILLER_11_241
*633 FILLER_12_2
*634 FILLER_12_18
*635 FILLER_12_22
*636 FILLER_12_24
*637 FILLER_12_43
*638 FILLER_12_75
*639 FILLER_12_83
*640 FILLER_12_104
*641 FILLER_12_239
*642 FILLER_12_243
*643 FILLER_13_2
*644 FILLER_13_34
*645 FILLER_13_42
*646 FILLER_13_115
*647 FILLER_13_203
*648 FILLER_13_205
*649 FILLER_14_2
*650 FILLER_14_18
*651 FILLER_14_49
*652 FILLER_14_65
*653 FILLER_14_105
*654 FILLER_14_160
*655 FILLER_14_176
*656 FILLER_14_180
*657 FILLER_14_196
*658 FILLER_14_204
*659 FILLER_14_208
*660 FILLER_14_213
*661 FILLER_14_221
*662 FILLER_14_239
*663 FILLER_14_243
*664 FILLER_15_2
*665 FILLER_15_10
*666 FILLER_15_12
*667 FILLER_15_52
*668 FILLER_15_60
*669 FILLER_15_98
*670 FILLER_15_114
*671 FILLER_15_122
*672 FILLER_15_159
*673 FILLER_15_191
*674 FILLER_15_207
*675 FILLER_15_211
*676 FILLER_15_240
*677 FILLER_15_244
*678 FILLER_16_2
*679 FILLER_16_10
*680 FILLER_16_54
*681 FILLER_16_70
*682 FILLER_16_74
*683 FILLER_16_76
*684 FILLER_16_96
*685 FILLER_16_112
*686 FILLER_16_120
*687 FILLER_16_124
*688 FILLER_16_162
*689 FILLER_16_180
*690 FILLER_16_244
*691 FILLER_17_2
*692 FILLER_17_34
*693 FILLER_17_50
*694 FILLER_17_58
*695 FILLER_17_78
*696 FILLER_17_122
*697 FILLER_17_186
*698 FILLER_17_230
*699 FILLER_17_238
*700 FILLER_17_242
*701 FILLER_17_244
*702 FILLER_18_2
*703 FILLER_18_34
*704 FILLER_18_78
*705 FILLER_18_142
*706 FILLER_18_174
*707 FILLER_18_231
*708 FILLER_18_239
*709 FILLER_18_243
*710 FILLER_19_2
*711 FILLER_19_70
*712 FILLER_19_119
*713 FILLER_19_151
*714 FILLER_19_155
*715 FILLER_19_181
*716 FILLER_19_213
*717 FILLER_19_221
*718 FILLER_19_237
*719 FILLER_20_2
*720 FILLER_20_18
*721 FILLER_20_20
*722 FILLER_20_60
*723 FILLER_20_76
*724 FILLER_20_84
*725 FILLER_20_116
*726 FILLER_20_120
*727 FILLER_20_122
*728 FILLER_20_147
*729 FILLER_20_151
*730 FILLER_20_159
*731 FILLER_20_197
*732 FILLER_20_244
*733 FILLER_21_2
*734 FILLER_21_18
*735 FILLER_21_43
*736 FILLER_21_59
*737 FILLER_21_67
*738 FILLER_21_83
*739 FILLER_21_85
*740 FILLER_21_211
*741 FILLER_21_240
*742 FILLER_21_244
*743 FILLER_22_2
*744 FILLER_22_18
*745 FILLER_22_47
*746 FILLER_22_52
*747 FILLER_22_128
*748 FILLER_22_167
*749 FILLER_22_172
*750 FILLER_22_176
*751 FILLER_22_180
*752 FILLER_22_188
*753 FILLER_22_242
*754 FILLER_22_244
*755 FILLER_23_2
*756 FILLER_23_18
*757 FILLER_23_20
*758 FILLER_23_25
*759 FILLER_23_68
*760 FILLER_23_76
*761 FILLER_23_124
*762 FILLER_23_126
*763 FILLER_23_131
*764 FILLER_23_135
*765 FILLER_23_137
*766 FILLER_23_142
*767 FILLER_23_150
*768 FILLER_23_152
*769 FILLER_23_189
*770 FILLER_23_207
*771 FILLER_23_226
*772 FILLER_23_242
*773 FILLER_23_244
*774 FILLER_24_2
*775 FILLER_24_18
*776 FILLER_24_26
*777 FILLER_24_47
*778 FILLER_24_65
*779 FILLER_24_67
*780 FILLER_24_121
*781 FILLER_24_153
*782 FILLER_24_169
*783 FILLER_24_177
*784 FILLER_24_195
*785 FILLER_24_203
*786 FILLER_24_207
*787 FILLER_25_2
*788 FILLER_25_6
*789 FILLER_25_44
*790 FILLER_25_108
*791 FILLER_25_140
*792 FILLER_25_156
*793 FILLER_25_196
*794 FILLER_25_212
*795 FILLER_25_217
*796 FILLER_25_233
*797 FILLER_25_241
*798 FILLER_26_2
*799 FILLER_26_10
*800 FILLER_26_50
*801 FILLER_26_114
*802 FILLER_26_130
*803 FILLER_26_134
*804 FILLER_26_150
*805 FILLER_26_166
*806 FILLER_26_174
*807 FILLER_26_180
*808 FILLER_26_196
*809 FILLER_26_204
*810 FILLER_26_214
*811 FILLER_26_230
*812 FILLER_26_238
*813 FILLER_26_242
*814 FILLER_26_244
*815 FILLER_27_2
*816 FILLER_27_18
*817 FILLER_27_26
*818 FILLER_27_63
*819 FILLER_27_71
*820 FILLER_27_75
*821 FILLER_27_77
*822 FILLER_27_97
*823 FILLER_27_113
*824 FILLER_27_117
*825 FILLER_27_169
*826 FILLER_27_173
*827 FILLER_27_211
*828 FILLER_27_228
*829 FILLER_27_244
*830 FILLER_28_2
*831 FILLER_28_10
*832 FILLER_28_14
*833 FILLER_28_118
*834 FILLER_28_170
*835 FILLER_28_231
*836 FILLER_28_239
*837 FILLER_28_243
*838 FILLER_29_2
*839 FILLER_29_6
*840 FILLER_29_22
*841 FILLER_29_24
*842 FILLER_29_40
*843 FILLER_29_80
*844 FILLER_29_124
*845 FILLER_29_168
*846 FILLER_29_172
*847 FILLER_30_2
*848 FILLER_30_10
*849 FILLER_30_14
*850 FILLER_30_124
*851 FILLER_30_128
*852 FILLER_30_166
*853 FILLER_30_174
*854 FILLER_30_216
*855 FILLER_30_233
*856 FILLER_30_241
*857 FILLER_31_2
*858 FILLER_31_18
*859 FILLER_31_26
*860 FILLER_31_28
*861 FILLER_31_65
*862 FILLER_31_73
*863 FILLER_31_111
*864 FILLER_31_119
*865 FILLER_31_123
*866 FILLER_31_175
*867 FILLER_31_183
*868 FILLER_31_187
*869 FILLER_31_189
*870 FILLER_31_226
*871 FILLER_31_242
*872 FILLER_31_244
*873 FILLER_32_2
*874 FILLER_32_66
*875 FILLER_32_130
*876 FILLER_32_162
*877 FILLER_32_180
*878 FILLER_32_196
*879 FILLER_32_233
*880 FILLER_32_241
*881 FILLER_33_2
*882 FILLER_33_18
*883 FILLER_33_20
*884 FILLER_33_57
*885 FILLER_33_89
*886 FILLER_33_105
*887 FILLER_33_113
*888 FILLER_33_117
*889 FILLER_33_155
*890 FILLER_33_171
*891 FILLER_33_175
*892 FILLER_33_177
*893 FILLER_33_180
*894 FILLER_33_196
*895 FILLER_33_234
*896 FILLER_33_242
*897 FILLER_33_244

*PORTS
clockp[0] O
clockp[1] O
dco I
enable I
ext_trim[0] I
ext_trim[10] I
ext_trim[11] I
ext_trim[12] I
ext_trim[13] I
ext_trim[14] I
ext_trim[15] I
ext_trim[16] I
ext_trim[17] I
ext_trim[18] I
ext_trim[19] I
ext_trim[1] I
ext_trim[20] I
ext_trim[21] I
ext_trim[22] I
ext_trim[23] I
ext_trim[24] I
ext_trim[25] I
ext_trim[2] I
ext_trim[3] I
ext_trim[4] I
ext_trim[5] I
ext_trim[6] I
ext_trim[7] I
ext_trim[8] I
ext_trim[9] I
reset I
trim[0] I
trim[10] I
trim[11] I
trim[12] I
trim[13] I
trim[14] I
trim[15] I
trim[16] I
trim[17] I
trim[18] I
trim[19] I
trim[1] I
trim[20] I
trim[21] I
trim[22] I
trim[23] I
trim[24] I
trim[25] I
trim[2] I
trim[3] I
trim[4] I
trim[5] I
trim[6] I
trim[7] I
trim[8] I
trim[9] I

*D_NET *1 0.00146276
*CONN
*I *239:I1 I *D gf180mcu_fd_sc_mcu7t5v0__mux2_4
*I *213:Z O *D gf180mcu_fd_sc_mcu7t5v0__dlyd_2
*CAP
1 *239:I1 0.000652422
2 *213:Z 0.000652422
3 *239:I1 *251:I 0
4 *239:I1 *355:I 0
5 *239:I1 *460:I 0
6 *239:I1 *465:I 0
7 *239:I1 *472:I 0.000141878
8 *239:I1 *146:26 1.28924e-05
9 *239:I1 *146:28 3.14933e-06
*RES
1 *213:Z *239:I1 11.6189 
*END

*D_NET *2 0.000518797
*CONN
*I *238:I1 I *D gf180mcu_fd_sc_mcu7t5v0__mux2_4
*I *224:Z O *D gf180mcu_fd_sc_mcu7t5v0__dlyd_2
*CAP
1 *238:I1 0.000209793
2 *224:Z 0.000209793
3 *238:I1 *238:S 9.92115e-05
*RES
1 *224:Z *238:I1 9.53403 
*END

*D_NET *3 0.00174188
*CONN
*I *350:I I *D gf180mcu_fd_sc_mcu7t5v0__clkinv_8
*I *349:ZN O *D gf180mcu_fd_sc_mcu7t5v0__clkinv_2
*CAP
1 *350:I 0.000307181
2 *349:ZN 0.000307181
3 *350:I *349:I 4.33878e-05
4 *350:I *358:I 0.000448149
5 *350:I *359:EN 8.80333e-05
6 *350:I *16:10 0.000547946
*RES
1 *349:ZN *350:I 11.2962 
*END

*D_NET *4 0.000758685
*CONN
*I *352:I I *D gf180mcu_fd_sc_mcu7t5v0__clkinv_8
*I *351:ZN O *D gf180mcu_fd_sc_mcu7t5v0__clkinv_2
*CAP
1 *352:I 0.000110537
2 *351:ZN 0.000110537
3 *352:I *76:26 8.6059e-05
4 *352:I *76:37 0.000451552
*RES
1 *351:ZN *352:I 9.52726 
*END

*D_NET *5 0.00114696
*CONN
*I *477:I I *D gf180mcu_fd_sc_mcu7t5v0__dlyd_2
*I *350:ZN O *D gf180mcu_fd_sc_mcu7t5v0__clkinv_8
*CAP
1 *477:I 0.000199815
2 *350:ZN 0.000199815
3 *477:I *357:EN 6.75147e-05
4 *477:I *358:EN 0
5 *477:I *359:EN 0.000679813
*RES
1 *350:ZN *477:I 10.0395 
*END

*D_NET *6 0.000946821
*CONN
*I *478:I I *D gf180mcu_fd_sc_mcu7t5v0__dlyd_2
*I *352:ZN O *D gf180mcu_fd_sc_mcu7t5v0__clkinv_8
*CAP
1 *478:I 0.000449824
2 *352:ZN 0.000449824
3 *478:I *76:37 4.71736e-05
*RES
1 *352:ZN *478:I 18.7522 
*END

*D_NET *7 0.00274985
*CONN
*P dco I
*I *355:I I *D gf180mcu_fd_sc_mcu7t5v0__dlyd_2
*CAP
1 dco 0.000290885
2 *355:I 0.000290885
3 *355:I *251:I 9.17202e-06
4 *355:I *460:I 0
5 *355:I *465:I 0.00108429
6 *355:I *476:I 0.00107462
7 *239:I1 *355:I 0
*RES
1 dco *355:I 17.83 
*END

*D_NET *8 0.000933777
*CONN
*I *236:I1 I *D gf180mcu_fd_sc_mcu7t5v0__mux2_4
*I *242:Z O *D gf180mcu_fd_sc_mcu7t5v0__dlyd_2
*CAP
1 *236:I1 0.00031643
2 *242:Z 0.00031643
3 *236:I1 *79:10 0
4 *236:I1 *146:38 0.000300916
*RES
1 *242:Z *236:I1 10.6712 
*END

*D_NET *9 0.00123206
*CONN
*I *244:ZN O *D gf180mcu_fd_sc_mcu7t5v0__invz_2
*I *247:I I *D gf180mcu_fd_sc_mcu7t5v0__clkinv_2
*I *246:ZN O *D gf180mcu_fd_sc_mcu7t5v0__invz_4
*CAP
1 *244:ZN 0
2 *247:I 0.000445408
3 *246:ZN 0.000170623
4 *9:8 0.000616031
5 *247:I *11:33 0
6 *247:I *12:8 0
7 *247:I *12:14 0
8 *9:8 *11:33 0
*RES
1 *246:ZN *9:8 5.11449 
2 *9:8 *247:I 6.37129 
3 *9:8 *244:ZN 4.23 
*END

*D_NET *10 0.000294802
*CONN
*I *243:I I *D gf180mcu_fd_sc_mcu7t5v0__invz_2
*I *247:ZN O *D gf180mcu_fd_sc_mcu7t5v0__clkinv_2
*CAP
1 *243:I 0.000129013
2 *247:ZN 0.000129013
3 *243:I *12:8 0
4 *243:I *12:14 3.67752e-05
*RES
1 *247:ZN *243:I 9.28131 
*END

*D_NET *11 0.00829001
*CONN
*I *356:ZN O *D gf180mcu_fd_sc_mcu7t5v0__invz_2
*I *358:ZN O *D gf180mcu_fd_sc_mcu7t5v0__invz_8
*I *246:I I *D gf180mcu_fd_sc_mcu7t5v0__invz_4
*I *244:I I *D gf180mcu_fd_sc_mcu7t5v0__invz_2
*I *245:I I *D gf180mcu_fd_sc_mcu7t5v0__invz_8
*I *349:I I *D gf180mcu_fd_sc_mcu7t5v0__clkinv_2
*I *361:ZN O *D gf180mcu_fd_sc_mcu7t5v0__invz_1
*CAP
1 *356:ZN 0.000948058
2 *358:ZN 0
3 *246:I 0
4 *244:I 0.000247862
5 *245:I 0.000335044
6 *349:I 0.000288212
7 *361:ZN 0
8 *11:33 0.000746159
9 *11:29 0.000686091
10 *11:14 0.00122341
11 *11:8 0.000757475
12 *11:4 0.00129317
13 *245:I *243:EN 0.000194671
14 *245:I *244:EN 2.9378e-06
15 *245:I *249:I 0
16 *349:I *214:I1 0
17 *356:ZN *354:A1 0
18 *356:ZN *356:I 0.000295771
19 *356:ZN *357:I 6.74362e-06
20 *356:ZN *361:EN 0
21 *356:ZN *31:24 1.68352e-05
22 *356:ZN *31:35 1.21385e-05
23 *356:ZN *147:8 0
24 *11:8 *214:S 0
25 *11:8 *361:I 5.15962e-05
26 *11:14 *214:S 0
27 *11:29 *214:I0 0.000415142
28 *11:29 *214:S 0.00049811
29 *11:29 *244:EN 1.51298e-05
30 *11:29 *16:10 7.75871e-05
31 *11:33 *244:EN 0.000134472
32 *247:I *11:33 0
33 *350:I *349:I 4.33878e-05
34 *9:8 *11:33 0
*RES
1 *361:ZN *11:4 4.23 
2 *11:4 *11:8 1.70581 
3 *11:8 *11:14 6.2517 
4 *11:14 *349:I 9.7653 
5 *11:14 *11:29 7.8853 
6 *11:29 *11:33 5.24987 
7 *11:33 *245:I 10.2922 
8 *11:33 *244:I 9.78674 
9 *11:29 *246:I 4.23 
10 *11:8 *358:ZN 4.23 
11 *11:4 *356:ZN 16.6702 
*END

*D_NET *12 0.00367354
*CONN
*I *243:ZN O *D gf180mcu_fd_sc_mcu7t5v0__invz_2
*I *271:I I *D gf180mcu_fd_sc_mcu7t5v0__invz_2
*I *272:I I *D gf180mcu_fd_sc_mcu7t5v0__invz_8
*I *273:I I *D gf180mcu_fd_sc_mcu7t5v0__invz_4
*I *245:ZN O *D gf180mcu_fd_sc_mcu7t5v0__invz_8
*CAP
1 *243:ZN 0
2 *271:I 0
3 *272:I 0.000492677
4 *273:I 0.000179384
5 *245:ZN 0.000222106
6 *12:29 0.00066295
7 *12:14 0.000808775
8 *12:8 0.000681224
9 *272:I *233:I1 0
10 *272:I *270:I 0.00013752
11 *272:I *270:ZN 2.95786e-05
12 *272:I *274:I 3.0618e-05
13 *272:I *40:29 0
14 *273:I *271:ZN 7.00669e-05
15 *12:14 *271:ZN 7.67293e-05
16 *12:14 *38:8 6.79185e-05
17 *12:29 *271:ZN 7.50078e-05
18 *12:29 *274:I 0.000102212
19 *243:I *12:8 0
20 *243:I *12:14 3.67752e-05
21 *247:I *12:8 0
22 *247:I *12:14 0
*RES
1 *245:ZN *12:8 5.36721 
2 *12:8 *12:14 6.88348 
3 *12:14 *273:I 9.27229 
4 *12:14 *12:29 5.30403 
5 *12:29 *272:I 6.69394 
6 *12:29 *271:I 4.23 
7 *12:8 *243:ZN 4.23 
*END

*D_NET *13 0.000586007
*CONN
*I *245:EN I *D gf180mcu_fd_sc_mcu7t5v0__invz_8
*I *248:ZN O *D gf180mcu_fd_sc_mcu7t5v0__inv_1
*CAP
1 *245:EN 0.000284455
2 *248:ZN 0.000284455
3 *245:EN *243:EN 1.30802e-05
4 *245:EN *248:I 4.01733e-06
*RES
1 *248:ZN *245:EN 9.7732 
*END

*D_NET *14 0.000219344
*CONN
*I *246:EN I *D gf180mcu_fd_sc_mcu7t5v0__invz_4
*I *249:ZN O *D gf180mcu_fd_sc_mcu7t5v0__inv_1
*CAP
1 *246:EN 7.48304e-05
2 *249:ZN 7.48304e-05
3 *246:EN *248:I 1.54321e-05
4 *246:EN *15:10 5.42512e-05
*RES
1 *249:ZN *246:EN 8.94963 
*END

*D_NET *15 0.00295803
*CONN
*I *243:EN I *D gf180mcu_fd_sc_mcu7t5v0__invz_2
*I *248:I I *D gf180mcu_fd_sc_mcu7t5v0__inv_1
*I *214:Z O *D gf180mcu_fd_sc_mcu7t5v0__mux2_2
*CAP
1 *243:EN 0.000332664
2 *248:I 0.000204649
3 *214:Z 0.000514483
4 *15:10 0.0010518
5 *243:EN *244:EN 7.71607e-06
6 *15:10 *244:EN 6.44691e-05
7 *15:10 *249:I 4.69538e-06
8 *15:10 *16:10 0.000496102
9 *245:EN *243:EN 1.30802e-05
10 *245:EN *248:I 4.01733e-06
11 *245:I *243:EN 0.000194671
12 *246:EN *248:I 1.54321e-05
13 *246:EN *15:10 5.42512e-05
*RES
1 *214:Z *15:10 7.76797 
2 *15:10 *248:I 5.36721 
3 *15:10 *243:EN 6.31488 
*END

*D_NET *16 0.00766061
*CONN
*I *244:EN I *D gf180mcu_fd_sc_mcu7t5v0__invz_2
*I *249:I I *D gf180mcu_fd_sc_mcu7t5v0__inv_1
*I *218:Z O *D gf180mcu_fd_sc_mcu7t5v0__mux2_2
*CAP
1 *244:EN 0.000252178
2 *249:I 0.00025177
3 *218:Z 0.0012538
4 *16:10 0.00175775
5 *16:10 *212:A1 2.67822e-06
6 *16:10 *214:S 0.000234805
7 *16:10 *217:I1 0.000194479
8 *16:10 *357:I 1.66059e-05
9 *16:10 *357:ZN 0.000387494
10 *16:10 *359:EN 5.10188e-05
11 *16:10 *359:I 4.85196e-05
12 *16:10 *144:12 9.17202e-06
13 *16:10 *146:278 5.2938e-05
14 *16:10 *151:12 0.00067978
15 *16:10 *152:20 0.00111657
16 *243:EN *244:EN 7.71607e-06
17 *245:I *244:EN 2.9378e-06
18 *245:I *249:I 0
19 *350:I *16:10 0.000547946
20 *11:29 *244:EN 1.51298e-05
21 *11:29 *16:10 7.75871e-05
22 *11:33 *244:EN 0.000134472
23 *15:10 *244:EN 6.44691e-05
24 *15:10 *249:I 4.69538e-06
25 *15:10 *16:10 0.000496102
*RES
1 *218:Z *16:10 19.8952 
2 *16:10 *249:I 9.47085 
3 *16:10 *244:EN 10.1026 
*END

*D_NET *17 0.000735392
*CONN
*I *237:I1 I *D gf180mcu_fd_sc_mcu7t5v0__mux2_4
*I *241:Z O *D gf180mcu_fd_sc_mcu7t5v0__dlyd_2
*CAP
1 *237:I1 0.000367696
2 *241:Z 0.000367696
3 *237:I1 clockp[1] 0
4 *237:I1 *237:I0 0
5 *237:I1 *237:S 0
*RES
1 *241:Z *237:I1 10.2922 
*END

*D_NET *18 0.000512075
*CONN
*I *234:I1 I *D gf180mcu_fd_sc_mcu7t5v0__mux2_2
*I *251:Z O *D gf180mcu_fd_sc_mcu7t5v0__dlyd_2
*CAP
1 *234:I1 0.00025372
2 *251:Z 0.00025372
3 *234:I1 *234:I0 0
4 *234:I1 *234:S 4.63599e-06
*RES
1 *251:Z *234:I1 9.72356 
*END

*D_NET *19 0.00163569
*CONN
*I *253:ZN O *D gf180mcu_fd_sc_mcu7t5v0__invz_2
*I *256:I I *D gf180mcu_fd_sc_mcu7t5v0__clkinv_2
*I *255:ZN O *D gf180mcu_fd_sc_mcu7t5v0__invz_4
*CAP
1 *253:ZN 0.000266542
2 *256:I 0.000401186
3 *255:ZN 0
4 *19:4 0.000667727
5 *253:ZN *253:I 0.000186949
6 *253:ZN *21:45 0.000103311
7 *256:I *252:I 7.68129e-06
8 *256:I *264:EN 2.29645e-06
*RES
1 *255:ZN *19:4 4.23 
2 *19:4 *256:I 14.5154 
3 *19:4 *253:ZN 5.93581 
*END

*D_NET *20 0.00134529
*CONN
*I *252:I I *D gf180mcu_fd_sc_mcu7t5v0__invz_2
*I *256:ZN O *D gf180mcu_fd_sc_mcu7t5v0__clkinv_2
*CAP
1 *252:I 0.000194865
2 *256:ZN 0.000194865
3 *252:I *252:ZN 0.000185335
4 *252:I *262:EN 2.05229e-05
5 *252:I *264:EN 0.000742019
6 *256:I *252:I 7.68129e-06
*RES
1 *256:ZN *252:I 10.5449 
*END

*D_NET *21 0.00398387
*CONN
*I *253:I I *D gf180mcu_fd_sc_mcu7t5v0__invz_2
*I *254:I I *D gf180mcu_fd_sc_mcu7t5v0__invz_8
*I *255:I I *D gf180mcu_fd_sc_mcu7t5v0__invz_4
*I *342:ZN O *D gf180mcu_fd_sc_mcu7t5v0__invz_2
*I *344:ZN O *D gf180mcu_fd_sc_mcu7t5v0__invz_8
*CAP
1 *253:I 0.000264022
2 *254:I 0
3 *255:I 2.75673e-05
4 *342:ZN 0.000314
5 *344:ZN 0.000740416
6 *21:45 0.000640471
7 *21:30 0.000830432
8 *253:I *252:EN 5.76671e-06
9 *253:I *254:EN 5.17657e-06
10 *342:ZN *304:I 0.000133715
11 *342:ZN *342:I 0.00032573
12 *342:ZN *346:I 0.000108344
13 *21:30 *255:EN 0.000297967
14 *21:30 *342:I 0
15 *253:ZN *253:I 0.000186949
16 *253:ZN *21:45 0.000103311
*RES
1 *344:ZN *342:ZN 10.7976 
2 *344:ZN *21:30 10.4817 
3 *21:30 *255:I 8.5762 
4 *21:30 *21:45 6.06216 
5 *21:45 *254:I 4.23 
6 *21:45 *253:I 14.0799 
*END

*D_NET *22 0.00321484
*CONN
*I *263:I I *D gf180mcu_fd_sc_mcu7t5v0__invz_8
*I *262:I I *D gf180mcu_fd_sc_mcu7t5v0__invz_2
*I *264:I I *D gf180mcu_fd_sc_mcu7t5v0__invz_4
*I *252:ZN O *D gf180mcu_fd_sc_mcu7t5v0__invz_2
*I *254:ZN O *D gf180mcu_fd_sc_mcu7t5v0__invz_8
*CAP
1 *263:I 0.000108991
2 *262:I 0.000106215
3 *264:I 0.000134337
4 *252:ZN 0.000164221
5 *254:ZN 0.00025897
6 *22:35 0.000435513
7 *22:24 0.000449393
8 *262:I *259:I 0.000362629
9 *262:I *462:I 0
10 *263:I *259:I 0.000111663
11 *263:I *261:EN 1.82194e-05
12 *263:I *262:ZN 5.3949e-06
13 *263:I *265:I 1.34873e-06
14 *264:I *262:EN 8.2273e-05
15 *264:I *264:EN 2.59173e-05
16 *264:I *462:I 0.000756581
17 *22:24 *264:EN 0
18 *22:35 *262:ZN 7.83547e-06
19 *22:35 *266:I 0
20 *252:I *252:ZN 0.000185335
*RES
1 *254:ZN *252:ZN 9.66038 
2 *254:ZN *22:24 8.90225 
3 *22:24 *264:I 10.0936 
4 *22:24 *22:35 1.07403 
5 *22:35 *262:I 9.28131 
6 *22:35 *263:I 9.0286 
*END

*D_NET *23 0.00163507
*CONN
*I *254:EN I *D gf180mcu_fd_sc_mcu7t5v0__invz_8
*I *257:ZN O *D gf180mcu_fd_sc_mcu7t5v0__inv_1
*CAP
1 *254:EN 0.000667168
2 *257:ZN 0.000667168
3 *254:EN *252:EN 0
4 *254:EN *253:EN 0.000289015
5 *254:EN *255:EN 6.54009e-06
6 *254:EN *257:I 0
7 *254:EN *258:I 0
8 *253:I *254:EN 5.17657e-06
*RES
1 *257:ZN *254:EN 20.0022 
*END

*D_NET *24 0.0021798
*CONN
*I *255:EN I *D gf180mcu_fd_sc_mcu7t5v0__invz_4
*I *258:ZN O *D gf180mcu_fd_sc_mcu7t5v0__inv_1
*CAP
1 *255:EN 0.000798854
2 *258:ZN 0.000798854
3 *255:EN *240:I0 0.00026159