*SPEF "ieee 1481-1999"
*DESIGN "ring_osc2x13"
*DATE "15:11:31 Tuesday September 23, 2025"
*VENDOR "The OpenROAD Project"
*PROGRAM "OpenROAD"
*VERSION "9f7714859944860f802c7c961ba83ab4ae83849f"
*DESIGN_FLOW "NAME_SCOPE LOCAL" "PIN_CAP NONE"
*DIVIDER /
*DELIMITER :
*BUS_DELIMITER []
*T_UNIT 1 NS
*C_UNIT 1 PF
*R_UNIT 1 OHM
*L_UNIT 1 HENRY

*NAME_MAP
*1 net3
*2 c\[0\]
*3 c\[1\]
*4 net30
*5 net31
*6 dco
*7 net27
*8 dstage\[0\]\.id\.d1
*9 dstage\[0\]\.id\.d2
*10 dstage\[0\]\.id\.in
*11 dstage\[0\]\.id\.out
*12 dstage\[0\]\.id\.trim0b
*13 dstage\[0\]\.id\.trim1b
*14 net28
*15 net25
*16 dstage\[10\]\.id\.d1
*17 dstage\[10\]\.id\.d2
*18 dstage\[10\]\.id\.in
*19 dstage\[10\]\.id\.out
*20 dstage\[10\]\.id\.trim0b
*21 dstage\[10\]\.id\.trim1b
*22 net26
*23 net23
*24 dstage\[11\]\.id\.d1
*25 dstage\[11\]\.id\.d2
*26 dstage\[11\]\.id\.out
*27 dstage\[11\]\.id\.trim0b
*28 dstage\[11\]\.id\.trim1b
*29 net24
*30 net21
*31 dstage\[1\]\.id\.d1
*32 dstage\[1\]\.id\.d2
*33 dstage\[1\]\.id\.out
*34 dstage\[1\]\.id\.trim0b
*35 dstage\[1\]\.id\.trim1b
*36 net22
*37 net19
*38 dstage\[2\]\.id\.d1
*39 dstage\[2\]\.id\.d2
*40 dstage\[2\]\.id\.out
*41 dstage\[2\]\.id\.trim0b
*42 dstage\[2\]\.id\.trim1b
*43 net20
*44 net17
*45 dstage\[3\]\.id\.d1
*46 dstage\[3\]\.id\.d2
*47 dstage\[3\]\.id\.out
*48 dstage\[3\]\.id\.trim0b
*49 dstage\[3\]\.id\.trim1b
*50 net18
*51 net15
*52 dstage\[4\]\.id\.d1
*53 dstage\[4\]\.id\.d2
*54 dstage\[4\]\.id\.out
*55 dstage\[4\]\.id\.trim0b
*56 dstage\[4\]\.id\.trim1b
*57 net16
*58 net13
*59 dstage\[5\]\.id\.d1
*60 dstage\[5\]\.id\.d2
*61 dstage\[5\]\.id\.out
*62 dstage\[5\]\.id\.trim0b
*63 dstage\[5\]\.id\.trim1b
*64 net14
*65 net11
*66 dstage\[6\]\.id\.d1
*67 dstage\[6\]\.id\.d2
*68 dstage\[6\]\.id\.out
*69 dstage\[6\]\.id\.trim0b
*70 dstage\[6\]\.id\.trim1b
*71 net12
*72 net9
*73 dstage\[7\]\.id\.d1
*74 dstage\[7\]\.id\.d2
*75 dstage\[7\]\.id\.out
*76 dstage\[7\]\.id\.trim0b
*77 dstage\[7\]\.id\.trim1b
*78 net10
*79 net7
*80 dstage\[8\]\.id\.d1
*81 dstage\[8\]\.id\.d2
*82 dstage\[8\]\.id\.out
*83 dstage\[8\]\.id\.trim0b
*84 dstage\[8\]\.id\.trim1b
*85 net8
*86 net5
*87 dstage\[9\]\.id\.d1
*88 dstage\[9\]\.id\.d2
*89 dstage\[9\]\.id\.trim0b
*90 dstage\[9\]\.id\.trim1b
*91 net6
*92 enable
*93 ext_trim[0]
*94 ext_trim[10]
*95 ext_trim[11]
*96 ext_trim[12]
*97 ext_trim[13]
*98 ext_trim[14]
*99 ext_trim[15]
*100 ext_trim[16]
*101 ext_trim[17]
*102 ext_trim[18]
*103 ext_trim[19]
*104 ext_trim[1]
*105 ext_trim[20]
*106 ext_trim[21]
*107 ext_trim[22]
*108 ext_trim[23]
*109 ext_trim[24]
*110 ext_trim[25]
*111 ext_trim[2]
*112 ext_trim[3]
*113 ext_trim[4]
*114 ext_trim[5]
*115 ext_trim[6]
*116 ext_trim[7]
*117 ext_trim[8]
*118 ext_trim[9]
*119 iss\.ctrl0b
*120 net4
*121 iss\.d1
*122 iss\.d2
*124 iss\.trim1b
*125 reset
*126 trim[0]
*127 trim[10]
*128 trim[11]
*129 trim[12]
*130 trim[13]
*131 trim[14]
*132 trim[15]
*133 trim[16]
*134 trim[17]
*135 trim[18]
*136 trim[19]
*137 trim[1]
*138 trim[20]
*139 trim[21]
*140 trim[22]
*141 trim[23]
*142 trim[24]
*143 trim[25]
*144 trim[2]
*145 trim[3]
*146 trim[4]
*147 trim[5]
*148 trim[6]
*149 trim[7]
*150 trim[8]
*151 trim[9]
*152 net1
*153 net2
*155 net29
*156 clockp[0]
*157 clockp[1]
*158 iss\.reseten0_3
*159 input28
*160 input27
*161 dstage\[0\]\.id\.delayen0
*162 dstage\[0\]\.id\.delayen1
*163 dstage\[0\]\.id\.delayenb0
*164 dstage\[0\]\.id\.delayenb1
*165 dstage\[0\]\.id\.delayint0
*166 dstage\[0\]\.id\.trim0bar
*167 dstage\[0\]\.id\.trim1bar
*168 input26
*169 input25
*170 dstage\[10\]\.id\.delayen0
*171 dstage\[10\]\.id\.delayen1
*172 dstage\[10\]\.id\.delayenb0
*173 dstage\[10\]\.id\.delayenb1
*174 dstage\[10\]\.id\.delayint0
*175 dstage\[10\]\.id\.trim0bar
*176 dstage\[10\]\.id\.trim1bar
*177 input24
*178 input23
*179 dstage\[11\]\.id\.delayen0
*180 dstage\[11\]\.id\.delayen1
*181 dstage\[11\]\.id\.delayenb0
*182 dstage\[11\]\.id\.delayenb1
*183 dstage\[11\]\.id\.delayint0
*184 dstage\[11\]\.id\.trim0bar
*185 dstage\[11\]\.id\.trim1bar
*186 input22
*187 input21
*188 dstage\[1\]\.id\.delayen0
*189 dstage\[1\]\.id\.delayen1
*190 dstage\[1\]\.id\.delayenb0
*191 dstage\[1\]\.id\.delayenb1
*192 dstage\[1\]\.id\.delayint0
*193 dstage\[1\]\.id\.trim0bar
*194 dstage\[1\]\.id\.trim1bar
*195 input20
*196 input19
*197 dstage\[2\]\.id\.delayen0
*198 dstage\[2\]\.id\.delayen1
*199 dstage\[2\]\.id\.delayenb0
*200 dstage\[2\]\.id\.delayenb1
*201 dstage\[2\]\.id\.delayint0
*202 dstage\[2\]\.id\.trim0bar
*203 dstage\[2\]\.id\.trim1bar
*204 input18
*205 input17
*206 dstage\[3\]\.id\.delayen0
*207 dstage\[3\]\.id\.delayen1
*208 dstage\[3\]\.id\.delayenb0
*209 dstage\[3\]\.id\.delayenb1
*210 dstage\[3\]\.id\.delayint0
*211 dstage\[3\]\.id\.trim0bar
*212 dstage\[3\]\.id\.trim1bar
*213 input16
*214 input15
*215 dstage\[4\]\.id\.delayen0
*216 dstage\[4\]\.id\.delayen1
*217 dstage\[4\]\.id\.delayenb0
*218 dstage\[4\]\.id\.delayenb1
*219 dstage\[4\]\.id\.delayint0
*220 dstage\[4\]\.id\.trim0bar
*221 dstage\[4\]\.id\.trim1bar
*222 input14
*223 input13
*224 dstage\[5\]\.id\.delayen0
*225 dstage\[5\]\.id\.delayen1
*226 dstage\[5\]\.id\.delayenb0
*227 dstage\[5\]\.id\.delayenb1
*228 dstage\[5\]\.id\.delayint0
*229 dstage\[5\]\.id\.trim0bar
*230 dstage\[5\]\.id\.trim1bar
*231 input12
*232 input11
*233 dstage\[6\]\.id\.delayen0
*234 dstage\[6\]\.id\.delayen1
*235 dstage\[6\]\.id\.delayenb0
*236 dstage\[6\]\.id\.delayenb1
*237 dstage\[6\]\.id\.delayint0
*238 dstage\[6\]\.id\.trim0bar
*239 dstage\[6\]\.id\.trim1bar
*240 input10
*241 input9
*242 dstage\[7\]\.id\.delayen0
*243 dstage\[7\]\.id\.delayen1
*244 dstage\[7\]\.id\.delayenb0
*245 dstage\[7\]\.id\.delayenb1
*246 dstage\[7\]\.id\.delayint0
*247 dstage\[7\]\.id\.trim0bar
*248 dstage\[7\]\.id\.trim1bar
*249 input8
*250 input7
*251 dstage\[8\]\.id\.delayen0
*252 dstage\[8\]\.id\.delayen1
*253 dstage\[8\]\.id\.delayenb0
*254 dstage\[8\]\.id\.delayenb1
*255 dstage\[8\]\.id\.delayint0
*256 dstage\[8\]\.id\.trim0bar
*257 dstage\[8\]\.id\.trim1bar
*258 input6
*259 input5
*260 dstage\[9\]\.id\.delayen0
*261 dstage\[9\]\.id\.delayen1
*262 dstage\[9\]\.id\.delayenb0
*263 dstage\[9\]\.id\.delayenb1
*264 dstage\[9\]\.id\.delayint0
*265 dstage\[9\]\.id\.trim0bar
*266 dstage\[9\]\.id\.trim1bar
*267 ibufp00
*268 ibufp01
*269 ibufp10
*270 ibufp11
*271 PHY_EDGE_ROW_0_Right_0
*272 iss\.ctrlen0
*273 input4
*274 iss\.delayen0
*275 iss\.delayen1
*276 iss\.delayenb0
*277 iss\.delayenb1
*278 iss\.delayint0
*279 iss\.reseten0
*280 iss\.trim1bar
*281 iss\.ctrlen0_1
*282 iss\.reseten0_2
*283 PHY_EDGE_ROW_1_Right_1
*284 PHY_EDGE_ROW_2_Right_2
*285 PHY_EDGE_ROW_3_Right_3
*286 PHY_EDGE_ROW_4_Right_4
*287 PHY_EDGE_ROW_5_Right_5
*288 PHY_EDGE_ROW_6_Right_6
*289 PHY_EDGE_ROW_7_Right_7
*290 PHY_EDGE_ROW_8_Right_8
*291 PHY_EDGE_ROW_9_Right_9
*292 PHY_EDGE_ROW_10_Right_10
*293 PHY_EDGE_ROW_11_Right_11
*294 PHY_EDGE_ROW_12_Right_12
*295 PHY_EDGE_ROW_13_Right_13
*296 PHY_EDGE_ROW_14_Right_14
*297 PHY_EDGE_ROW_15_Right_15
*298 PHY_EDGE_ROW_16_Right_16
*299 PHY_EDGE_ROW_17_Right_17
*300 PHY_EDGE_ROW_18_Right_18
*301 PHY_EDGE_ROW_19_Right_19
*302 PHY_EDGE_ROW_20_Right_20
*303 PHY_EDGE_ROW_21_Right_21
*304 PHY_EDGE_ROW_22_Right_22
*305 PHY_EDGE_ROW_23_Right_23
*306 PHY_EDGE_ROW_24_Right_24
*307 PHY_EDGE_ROW_25_Right_25
*308 PHY_EDGE_ROW_26_Right_26
*309 PHY_EDGE_ROW_27_Right_27
*310 PHY_EDGE_ROW_28_Right_28
*311 PHY_EDGE_ROW_29_Right_29
*312 PHY_EDGE_ROW_0_Left_30
*313 PHY_EDGE_ROW_1_Left_31
*314 PHY_EDGE_ROW_2_Left_32
*315 PHY_EDGE_ROW_3_Left_33
*316 PHY_EDGE_ROW_4_Left_34
*317 PHY_EDGE_ROW_5_Left_35
*318 PHY_EDGE_ROW_6_Left_36
*319 PHY_EDGE_ROW_7_Left_37
*320 PHY_EDGE_ROW_8_Left_38
*321 PHY_EDGE_ROW_9_Left_39
*322 PHY_EDGE_ROW_10_Left_40
*323 PHY_EDGE_ROW_11_Left_41
*324 PHY_EDGE_ROW_12_Left_42
*325 PHY_EDGE_ROW_13_Left_43
*326 PHY_EDGE_ROW_14_Left_44
*327 PHY_EDGE_ROW_15_Left_45
*328 PHY_EDGE_ROW_16_Left_46
*329 PHY_EDGE_ROW_17_Left_47
*330 PHY_EDGE_ROW_18_Left_48
*331 PHY_EDGE_ROW_19_Left_49
*332 PHY_EDGE_ROW_20_Left_50
*333 PHY_EDGE_ROW_21_Left_51
*334 PHY_EDGE_ROW_22_Left_52
*335 PHY_EDGE_ROW_23_Left_53
*336 PHY_EDGE_ROW_24_Left_54
*337 PHY_EDGE_ROW_25_Left_55
*338 PHY_EDGE_ROW_26_Left_56
*339 PHY_EDGE_ROW_27_Left_57
*340 PHY_EDGE_ROW_28_Left_58
*341 PHY_EDGE_ROW_29_Left_59
*342 TAP_TAPCELL_ROW_0_60
*343 TAP_TAPCELL_ROW_2_61
*344 TAP_TAPCELL_ROW_4_62
*345 TAP_TAPCELL_ROW_6_63
*346 TAP_TAPCELL_ROW_8_64
*347 TAP_TAPCELL_ROW_10_65
*348 TAP_TAPCELL_ROW_12_66
*349 TAP_TAPCELL_ROW_14_67
*350 TAP_TAPCELL_ROW_16_68
*351 TAP_TAPCELL_ROW_18_69
*352 TAP_TAPCELL_ROW_20_70
*353 TAP_TAPCELL_ROW_22_71
*354 TAP_TAPCELL_ROW_24_72
*355 TAP_TAPCELL_ROW_26_73
*356 TAP_TAPCELL_ROW_28_74
*357 TAP_TAPCELL_ROW_29_75
*358 input29
*359 output30
*360 output31
*361 FILLER_0_2
*362 FILLER_0_66
*363 FILLER_0_130
*364 FILLER_0_162
*365 FILLER_0_180
*366 FILLER_0_212
*367 FILLER_0_214
*368 FILLER_1_2
*369 FILLER_1_66
*370 FILLER_1_130
*371 FILLER_1_194
*372 FILLER_1_210
*373 FILLER_1_214
*374 FILLER_2_2
*375 FILLER_2_66
*376 FILLER_2_130
*377 FILLER_2_162
*378 FILLER_2_180
*379 FILLER_2_212
*380 FILLER_2_214
*381 FILLER_3_2
*382 FILLER_3_66
*383 FILLER_3_130
*384 FILLER_3_194
*385 FILLER_3_210
*386 FILLER_3_214
*387 FILLER_4_2
*388 FILLER_4_66
*389 FILLER_4_130
*390 FILLER_4_162
*391 FILLER_4_180
*392 FILLER_4_212
*393 FILLER_4_214
*394 FILLER_5_2
*395 FILLER_5_66
*396 FILLER_5_130
*397 FILLER_5_194
*398 FILLER_5_210
*399 FILLER_5_214
*400 FILLER_6_2
*401 FILLER_6_66
*402 FILLER_6_98
*403 FILLER_6_114
*404 FILLER_6_118
*405 FILLER_6_120
*406 FILLER_6_138
*407 FILLER_6_170
*408 FILLER_6_180
*409 FILLER_6_212
*410 FILLER_6_214
*411 FILLER_7_2
*412 FILLER_7_66
*413 FILLER_7_98
*414 FILLER_7_106
*415 FILLER_7_110
*416 FILLER_7_112
*417 FILLER_7_141
*418 FILLER_7_157
*419 FILLER_7_165
*420 FILLER_7_169
*421 FILLER_7_171
*422 FILLER_7_211
*423 FILLER_8_2
*424 FILLER_8_66
*425 FILLER_8_82
*426 FILLER_8_90
*427 FILLER_8_92
*428 FILLER_8_135
*429 FILLER_8_137
*430 FILLER_8_203
*431 FILLER_8_211
*432 FILLER_9_2
*433 FILLER_9_66
*434 FILLER_9_70
*435 FILLER_9_72
*436 FILLER_9_97
*437 FILLER_9_101
*438 FILLER_9_146
*439 FILLER_9_150
*440 FILLER_9_205
*441 FILLER_9_213
*442 FILLER_10_2
*443 FILLER_10_66
*444 FILLER_10_70
*445 FILLER_10_134
*446 FILLER_10_150
*447 FILLER_10_158
*448 FILLER_10_160
*449 FILLER_10_208
*450 FILLER_10_212
*451 FILLER_10_214
*452 FILLER_11_2
*453 FILLER_11_34
*454 FILLER_11_50
*455 FILLER_11_58
*456 FILLER_11_62
*457 FILLER_11_107
*458 FILLER_11_123
*459 FILLER_11_206
*460 FILLER_11_214
*461 FILLER_12_2
*462 FILLER_12_34
*463 FILLER_12_50
*464 FILLER_12_58
*465 FILLER_12_62
*466 FILLER_12_64
*467 FILLER_12_82
*468 FILLER_12_100
*469 FILLER_12_164
*470 FILLER_12_166
*471 FILLER_12_173
*472 FILLER_12_177
*473 FILLER_12_180
*474 FILLER_12_207
*475 FILLER_13_2
*476 FILLER_13_34
*477 FILLER_13_42
*478 FILLER_13_80
*479 FILLER_13_144
*480 FILLER_13_169
*481 FILLER_13_201
*482 FILLER_13_209
*483 FILLER_13_213
*484 FILLER_14_2
*485 FILLER_14_34
*486 FILLER_14_50
*487 FILLER_14_87
*488 FILLER_14_103
*489 FILLER_14_105
*490 FILLER_14_146
*491 FILLER_14_164
*492 FILLER_14_172
*493 FILLER_14_176
*494 FILLER_14_180
*495 FILLER_14_185
*496 FILLER_14_201
*497 FILLER_14_209
*498 FILLER_14_213
*499 FILLER_15_2
*500 FILLER_15_66
*501 FILLER_15_74
*502 FILLER_15_78
*503 FILLER_15_80
*504 FILLER_15_98
*505 FILLER_15_162
*506 FILLER_15_170
*507 FILLER_15_172
*508 FILLER_15_212
*509 FILLER_15_214
*510 FILLER_16_2
*511 FILLER_16_18
*512 FILLER_16_26
*513 FILLER_16_47
*514 FILLER_16_63
*515 FILLER_16_71
*516 FILLER_16_73
*517 FILLER_16_102
*518 FILLER_16_118
*519 FILLER_16_120
*520 FILLER_16_139
*521 FILLER_16_143
*522 FILLER_16_151
*523 FILLER_16_159
*524 FILLER_16_204
*525 FILLER_16_212
*526 FILLER_16_214
*527 FILLER_17_2
*528 FILLER_17_18
*529 FILLER_17_50
*530 FILLER_17_58
*531 FILLER_17_62
*532 FILLER_17_64
*533 FILLER_17_108
*534 FILLER_17_112
*535 FILLER_17_114
*536 FILLER_17_151
*537 FILLER_17_159
*538 FILLER_17_213
*539 FILLER_18_2
*540 FILLER_18_57
*541 FILLER_18_89
*542 FILLER_18_97
*543 FILLER_18_101
*544 FILLER_18_108
*545 FILLER_18_116
*546 FILLER_18_153
*547 FILLER_18_203
*548 FILLER_18_211
*549 FILLER_19_2
*550 FILLER_19_46
*551 FILLER_19_54
*552 FILLER_19_56
*553 FILLER_19_110
*554 FILLER_19_126
*555 FILLER_19_130
*556 FILLER_19_168
*557 FILLER_19_172
*558 FILLER_19_201
*559 FILLER_19_209
*560 FILLER_19_213
*561 FILLER_20_38
*562 FILLER_20_54
*563 FILLER_20_62
*564 FILLER_20_66
*565 FILLER_20_104
*566 FILLER_20_172
*567 FILLER_20_176
*568 FILLER_20_197
*569 FILLER_20_213
*570 FILLER_21_2
*571 FILLER_21_22
*572 FILLER_21_43
*573 FILLER_21_107
*574 FILLER_21_115
*575 FILLER_21_119
*576 FILLER_21_156
*577 FILLER_21_188
*578 FILLER_21_204
*579 FILLER_21_212
*580 FILLER_21_214
*581 FILLER_22_2
*582 FILLER_22_66
*583 FILLER_22_130
*584 FILLER_22_162
*585 FILLER_22_180
*586 FILLER_22_212
*587 FILLER_22_214
*588 FILLER_23_2
*589 FILLER_23_18
*590 FILLER_23_50
*591 FILLER_23_58
*592 FILLER_23_62
*593 FILLER_23_64
*594 FILLER_23_95
*595 FILLER_23_123
*596 FILLER_23_155
*597 FILLER_23_171
*598 FILLER_23_175
*599 FILLER_24_2
*600 FILLER_24_10
*601 FILLER_24_61
*602 FILLER_24_69
*603 FILLER_24_71
*604 FILLER_24_111
*605 FILLER_24_117
*606 FILLER_24_135
*607 FILLER_24_151
*608 FILLER_24_153
*609 FILLER_24_210
*610 FILLER_24_214
*611 FILLER_25_2
*612 FILLER_25_10
*613 FILLER_25_37
*614 FILLER_25_55
*615 FILLER_25_63
*616 FILLER_25_105
*617 FILLER_25_146
*618 FILLER_25_154
*619 FILLER_25_160
*620 FILLER_25_210
*621 FILLER_25_214
*622 FILLER_26_2
*623 FILLER_26_64
*624 FILLER_26_214
*625 FILLER_27_2
*626 FILLER_27_6
*627 FILLER_27_79
*628 FILLER_27_87
*629 FILLER_27_213
*630 FILLER_28_2
*631 FILLER_28_66
*632 FILLER_28_130
*633 FILLER_28_138
*634 FILLER_28_184
*635 FILLER_28_186
*636 FILLER_28_191
*637 FILLER_28_207
*638 FILLER_29_2
*639 FILLER_29_54
*640 FILLER_29_122
*641 FILLER_29_154
*642 FILLER_29_170
*643 FILLER_29_180
*644 FILLER_29_212
*645 FILLER_29_214

*PORTS
clockp[0] O
clockp[1] O
dco I
enable I
ext_trim[0] I
ext_trim[10] I
ext_trim[11] I
ext_trim[12] I
ext_trim[13] I
ext_trim[14] I
ext_trim[15] I
ext_trim[16] I
ext_trim[17] I
ext_trim[18] I
ext_trim[19] I
ext_trim[1] I
ext_trim[20] I
ext_trim[21] I
ext_trim[22] I
ext_trim[23] I
ext_trim[24] I
ext_trim[25] I
ext_trim[2] I
ext_trim[3] I
ext_trim[4] I
ext_trim[5] I
ext_trim[6] I
ext_trim[7] I
ext_trim[8] I
ext_trim[9] I
reset I
trim[0] I
trim[10] I
trim[11] I
trim[12] I
trim[13] I
trim[14] I
trim[15] I
trim[16] I
trim[17] I
trim[18] I
trim[19] I
trim[1] I
trim[20] I
trim[21] I
trim[22] I
trim[23] I
trim[24] I
trim[25] I
trim[2] I
trim[3] I
trim[4] I
trim[5] I
trim[6] I
trim[7] I
trim[8] I
trim[9] I

*D_NET *1 0.000331647
*CONN
*I *279:I I *D gf180mcu_fd_sc_mcu7t5v0__invz_1
*I *158:Z O *D gf180mcu_fd_sc_mcu7t5v0__tieh
*CAP
1 *279:I 0.000165824
2 *158:Z 0.000165824
3 *279:I *10:14 0
*RES
1 *158:Z *279:I 9.28131 
*END

*D_NET *2 0.00108037
*CONN
*I *268:I I *D gf180mcu_fd_sc_mcu7t5v0__clkinv_8
*I *267:ZN O *D gf180mcu_fd_sc_mcu7t5v0__clkinv_2
*CAP
1 *268:I 0.000529778
2 *267:ZN 0.000529778
3 *268:I *267:I 1.94641e-05
4 *268:I *79:8 1.34873e-06
*RES
1 *267:ZN *268:I 19.3772 
*END

*D_NET *3 0.000622671
*CONN
*I *270:I I *D gf180mcu_fd_sc_mcu7t5v0__clkinv_8
*I *269:ZN O *D gf180mcu_fd_sc_mcu7t5v0__clkinv_2
*CAP
1 *270:I 0.0002292
2 *269:ZN 0.0002292
3 *270:I *234:EN 9.03982e-06
4 *270:I *238:I 1.65858e-05
5 *270:I *239:I 9.52575e-05
6 *270:I *269:I 4.33878e-05
7 *270:I *360:I 0
*RES
1 *269:ZN *270:I 9.77997 
*END

*D_NET *4 0.000928571
*CONN
*I *359:I I *D gf180mcu_fd_sc_mcu7t5v0__dlyd_2
*I *268:ZN O *D gf180mcu_fd_sc_mcu7t5v0__clkinv_8
*CAP
1 *359:I 0.000464285
2 *268:ZN 0.000464285
*RES
1 *268:ZN *359:I 10.6712 
*END

*D_NET *5 0.000427167
*CONN
*I *360:I I *D gf180mcu_fd_sc_mcu7t5v0__dlyd_2
*I *270:ZN O *D gf180mcu_fd_sc_mcu7t5v0__clkinv_8
*CAP
1 *360:I 0.000138498
2 *270:ZN 0.000138498
3 *360:I *22:16 3.83835e-06
4 *360:I *64:12 0.000146333
5 *270:I *360:I 0
*RES
1 *270:ZN *360:I 17.994 
*END

*D_NET *7 0.00381573
*CONN
*I *247:I I *D gf180mcu_fd_sc_mcu7t5v0__inv_1
*I *242:EN I *D gf180mcu_fd_sc_mcu7t5v0__invz_2
*I *160:Z O *D gf180mcu_fd_sc_mcu7t5v0__dlyd_2
*CAP
1 *247:I 0
2 *242:EN 0.00047409
3 *160:Z 0.00136496
4 *7:14 0.00183905
5 *242:EN *195:I 0
6 *242:EN *243:I 1.50183e-05
7 *242:EN *57:12 0
8 *7:14 *159:I 6.76894e-05
9 *7:14 *195:I 0
10 *7:14 *213:I 3.11513e-05
11 *7:14 *273:I 0
12 *7:14 *358:I 2.37722e-05
*RES
1 *160:Z *7:14 18.6919 
2 *7:14 *242:EN 6.31488 
3 *7:14 *247:I 4.23 
*END

*D_NET *8 0.000787861
*CONN
*I *165:I I *D gf180mcu_fd_sc_mcu7t5v0__clkinv_2
*I *162:ZN O *D gf180mcu_fd_sc_mcu7t5v0__invz_2
*I *164:ZN O *D gf180mcu_fd_sc_mcu7t5v0__invz_4
*CAP
1 *165:I 0.000213666
2 *162:ZN 0.000169674
3 *164:ZN 0.00038334
4 *162:ZN *164:I 2.11806e-05
5 *165:I *163:EN 0
6 *165:I *163:I 0
*RES
1 *164:ZN *162:ZN 9.34449 
2 *164:ZN *165:I 9.59721 
*END

*D_NET *9 0.000970676
*CONN
*I *161:I I *D gf180mcu_fd_sc_mcu7t5v0__invz_2
*I *165:ZN O *D gf180mcu_fd_sc_mcu7t5v0__clkinv_2
*CAP
1 *161:I 0.000388003
2 *165:ZN 0.000388003
3 *161:I *163:EN 0
4 *161:I *163:I 0.000194671
5 *161:I *191:EN 0
*RES
1 *165:ZN *161:I 10.7976 
*END

*D_NET *10 0.00796204
*CONN
*I *163:I I *D gf180mcu_fd_sc_mcu7t5v0__invz_8
*I *276:ZN O *D gf180mcu_fd_sc_mcu7t5v0__invz_8
*I *274:ZN O *D gf180mcu_fd_sc_mcu7t5v0__invz_2
*I *267:I I *D gf180mcu_fd_sc_mcu7t5v0__clkinv_2
*I *162:I I *D gf180mcu_fd_sc_mcu7t5v0__invz_2
*I *164:I I *D gf180mcu_fd_sc_mcu7t5v0__invz_4
*I *279:ZN O *D gf180mcu_fd_sc_mcu7t5v0__invz_1
*CAP
1 *163:I 0.000392894
2 *276:ZN 0.000598526
3 *274:ZN 0.000408862
4 *267:I 0.000527198
5 *162:I 0
6 *164:I 0.00038073
7 *279:ZN 0.000578096
8 *10:46 0.00127307
9 *10:37 0.000381494
10 *10:22 0.000742814
11 *10:20 0.00108232
12 *10:14 0.00113718
13 *163:I *279:EN 0
14 *164:I *164:EN 0
15 *267:I *79:8 0
16 *274:ZN *277:EN 0
17 *276:ZN *274:I 0.000223546
18 *10:46 *272:A1 0
19 *161:I *163:I 0.000194671
20 *162:ZN *164:I 2.11806e-05
21 *165:I *163:I 0
22 *268:I *267:I 1.94641e-05
23 *279:I *10:14 0
*RES
1 *279:ZN *10:14 16.3543 
2 *10:14 *10:20 4.86178 
3 *10:20 *10:22 1.70581 
4 *10:22 *164:I 10.1568 
5 *10:22 *10:37 4.41953 
6 *10:37 *162:I 4.23 
7 *10:37 *10:46 5.80945 
8 *10:46 *267:I 10.7762 
9 *10:46 *274:ZN 10.229 
10 *10:20 *276:ZN 12.5034 
11 *10:14 *163:I 6.50441 
*END

*D_NET *11 0.0038658
*CONN
*I *191:I I *D gf180mcu_fd_sc_mcu7t5v0__invz_4
*I *190:I I *D gf180mcu_fd_sc_mcu7t5v0__invz_8
*I *161:ZN O *D gf180mcu_fd_sc_mcu7t5v0__invz_2
*I *189:I I *D gf180mcu_fd_sc_mcu7t5v0__invz_2
*I *163:ZN O *D gf180mcu_fd_sc_mcu7t5v0__invz_8
*CAP
1 *191:I 0
2 *190:I 0.000470188
3 *161:ZN 0.00027863
4 *189:I 0.000395505
5 *163:ZN 0.000154765
6 *11:25 0.00114024
7 *11:8 0.000933178
8 *11:6 0.000301012
9 *161:ZN *188:EN 0
10 *161:ZN *194:I 0
11 *161:ZN *51:8 0
12 *189:I *194:I 0
13 *189:I *72:6 0
14 *190:I *188:EN 8.07614e-05
15 *190:I *190:EN 3.85615e-05
16 *190:I *193:I 4.69538e-06
17 *190:I *194:I 5.09642e-05
18 *190:I *72:6 1.73001e-05
19 *11:8 *191:EN 0
*RES
1 *163:ZN *11:6 4.97798 
2 *11:6 *11:8 0.641934 
3 *11:8 *189:I 14.2063 
4 *11:8 *11:25 5.93581 
5 *11:25 *161:ZN 9.72356 
6 *11:25 *190:I 10.8608 
7 *11:6 *191:I 4.23 
*END

*D_NET *12 0.000180943
*CONN
*I *163:EN I *D gf180mcu_fd_sc_mcu7t5v0__invz_8
*I *166:ZN O *D gf180mcu_fd_sc_mcu7t5v0__inv_1
*CAP
1 *163:EN 8.73214e-05
2 *166:ZN 8.73214e-05
3 *163:EN *166:I 6.29985e-06
4 *161:I *163:EN 0
5 *165:I *163:EN 0
*RES
1 *166:ZN *163:EN 8.95189 
*END

*D_NET *13 0.000395023
*CONN
*I *164:EN I *D gf180mcu_fd_sc_mcu7t5v0__invz_4
*I *167:ZN O *D gf180mcu_fd_sc_mcu7t5v0__inv_1
*CAP
1 *164:EN 0.000197511
2 *167:ZN 0.000197511
3 *164:I *164:EN 0
*RES
1 *167:ZN *164:EN 9.45506 
*END

*D_NET *14 0.00262389
*CONN
*I *256:I I *D gf180mcu_fd_sc_mcu7t5v0__inv_1
*I *251:EN I *D gf180mcu_fd_sc_mcu7t5v0__invz_2
*I *159:Z O *D gf180mcu_fd_sc_mcu7t5v0__dlyd_2
*CAP
1 *256:I 0.000223656
2 *251:EN 4.33516e-05
3 *159:Z 0.000859578
4 *14:20 0.00112658
5 *251:EN *80:18 1.50262e-05
6 *256:I *253:EN 4.07545e-05
7 *256:I *273:I 2.45168e-05
8 *256:I *80:18 1.34676e-05
9 *14:20 *204:I 0
10 *14:20 *251:I 0.000175338
11 *14:20 *255:I 3.1369e-06
12 *14:20 *80:18 9.84838e-05
*RES
1 *159:Z *14:20 16.607 
2 *14:20 *251:EN 4.41953 
3 *14:20 *256:I 13.5745 
*END

*D_NET *15 0.00124539
*CONN
*I *224:EN I *D gf180mcu_fd_sc_mcu7t5v0__invz_2
*I *229:I I *D gf180mcu_fd_sc_mcu7t5v0__inv_1
*I *169:Z O *D gf180mcu_fd_sc_mcu7t5v0__dlyd_2
*CAP
1 *224:EN 0
2 *229:I 0.000211489
3 *169:Z 0.000260185
4 *15:12 0.000471674
5 *229:I *169:I 0
6 *15:12 *169:I 0.000148034
7 *15:12 *226:EN 0
8 *15:12 *61:12 0.000154007
*RES
1 *169:Z *15:12 14.459 
2 *15:12 *229:I 13.8272 
3 *15:12 *224:EN 4.23 
*END

*D_NET *16 0.00162329
*CONN
*I *174:I I *D gf180mcu_fd_sc_mcu7t5v0__clkinv_2
*I *171:ZN O *D gf180mcu_fd_sc_mcu7t5v0__invz_2
*I *173:ZN O *D gf180mcu_fd_sc_mcu7t5v0__invz_4
*CAP
1 *174:I 1.24471e-05
2 *171:ZN 0.000567921
3 *173:ZN 0.000192388
4 *16:10 0.000772757
5 *171:ZN *170:EN 7.73845e-06
6 *171:ZN *170:I 3.21276e-05
7 *171:ZN *170:ZN 8.33504e-06
8 *171:ZN *171:I 2.95786e-05
9 *16:10 *18:39 0
*RES
1 *173:ZN *16:10 5.30403 
2 *16:10 *171:ZN 7.07301 
3 *16:10 *174:I 4.35636 
*END

*D_NET *17 0.000572835
*CONN
*I *170:I I *D gf180mcu_fd_sc_mcu7t5v0__invz_2
*I *174:ZN O *D gf180mcu_fd_sc_mcu7t5v0__clkinv_2
*CAP
1 *170:I 0.000234588
2 *174:ZN 0.000234588
3 *170:I *170:ZN 7.15319e-05
4 *171:ZN *170:I 3.21276e-05
*RES
1 *174:ZN *170:I 9.78674 
*END

*D_NET *18 0.0034721
*CONN
*I *173:I I *D gf180mcu_fd_sc_mcu7t5v0__invz_4
*I *172:I I *D gf180mcu_fd_sc_mcu7t5v0__invz_8
*I *171:I I *D gf180mcu_fd_sc_mcu7t5v0__invz_2
*I *260:ZN O *D gf180mcu_fd_sc_mcu7t5v0__invz_2
*I *262:ZN O *D gf180mcu_fd_sc_mcu7t5v0__invz_8
*CAP
1 *173:I 0
2 *172:I 0.000390491
3 *171:I 0.000813986
4 *260:ZN 2.51686e-05
5 *262:ZN 0.000339387
6 *18:39 0.000524718
7 *18:6 0.00104431
8 *171:I *170:EN 9.74164e-05
9 *171:I *171:EN 7.71607e-06
10 *171:I *173:EN 3.56401e-05
11 *171:I *260:I 2.16515e-06
12 *172:I *173:EN 4.13361e-07
13 *260:ZN *171:EN 2.57202e-06
14 *260:ZN *173:EN 1.62004e-05
15 *18:6 *170:EN 1.34549e-05
16 *18:6 *173:EN 0.000108521
17 *18:39 *173:EN 2.03599e-05
18 *171:ZN *171:I 2.95786e-05
19 *16:10 *18:39 0
*RES
1 *262:ZN *18:6 5.55674 
2 *18:6 *260:ZN 4.48271 
3 *18:6 *171:I 15.8489 
4 *262:ZN *18:39 4.97798 
5 *18:39 *172:I 14.5323 
6 *18:39 *173:I 4.23 
*END

*D_NET *19 0.00504107
*CONN
*I *170:ZN O *D gf180mcu_fd_sc_mcu7t5v0__invz_2
*I *180:I I *D gf180mcu_fd_sc_mcu7t5v0__invz_2
*I *182:I I *D gf180mcu_fd_sc_mcu7t5v0__invz_4
*I *181:I I *D gf180mcu_fd_sc_mcu7t5v0__invz_8
*I *172:ZN O *D gf180mcu_fd_sc_mcu7t5v0__invz_8
*CAP
1 *170:ZN 0.00092229
2 *180:I 0
3 *182:I 0
4 *181:I 0.000368016
5 *172:ZN 0.0016553
6 *19:16 0.00074928
7 *19:8 0.00111428
8 *181:I *182:EN 0
9 *181:I *275:EN 4.63999e-06
10 *181:I *275:I 0
11 *181:I *275:ZN 1.49066e-06
12 *181:I *26:27 0.000123273
13 *19:16 *180:EN 1.65868e-06
14 *19:16 *180:ZN 2.09703e-05
15 *19:16 *182:EN 0
16 *170:I *170:ZN 7.15319e-05
17 *171:ZN *170:ZN 8.33504e-06
*RES
1 *172:ZN *19:8 7.76797 
2 *19:8 *19:16 10.4095 
3 *19:16 *181:I 6.07119 
4 *19:16 *182:I 4.23 
5 *19:8 *180:I 4.23 
6 *172:ZN *170:ZN 12.7561 
*END

*D_NET *20 0.00227687
*CONN
*I *172:EN I *D gf180mcu_fd_sc_mcu7t5v0__invz_8
*I *175:ZN O *D gf180mcu_fd_sc_mcu7t5v0__inv_1
*CAP
1 *172:EN 0.000900669
2 *175:ZN 0.000900669
3 *172:EN *173:EN 0
4 *172:EN *175:I 0.000189914
5 *172:EN *176:I 1.00505e-05
6 *172:EN *260:I 4.45311e-05
7 *172:EN *261:I 0.000112473
8 *172:EN *264:I 1.74354e-05
9 *172:EN *82:36 0.000101133
*RES
1 *175:ZN *172:EN 13.4375 
*END

*D_NET *21 0.00172158
*CONN
*I *173:EN I *D gf180mcu_fd_sc_mcu7t5v0__invz_4
*I *176:ZN O *D gf180mcu_fd_sc_mcu7t5v0__inv_1
*CAP
1 *173:EN 0.000599725
2 *176:ZN 0.000599725
3 *173:EN *170:EN 0
4 *173:EN *176:I 0.000203115
5 *173:EN *260:I 0.000117578
6 *173:EN *264:I 0
7 *173:EN *37:6 2.03036e-05
8 *171:I *173:EN 3.56401e-05
9 *172:EN *173:EN 0
10 *172:I *173:EN 4.13361e-07
11 *260:ZN *173:EN 1.62004e-05
12 *18:6 *173:EN 0.000108521
13 *18:39 *173:EN 2.03599e-05
*RES
1 *176:ZN *173:EN 12.2507 
*END

*D_NET *22 0.00337614
*CONN
*I *233:EN I *D gf180mcu_fd_sc_mcu7t5v0__invz_2
*I *238:I I *D gf180mcu_fd_sc_mcu7t5v0__inv_1
*I *168:Z O *D gf180mcu_fd_sc_mcu7t5v0__dlyd_2
*CAP
1 *233:EN 0.000177445
2 *238:I 0.0003916
3 *168:Z 0.000598404
4 *22:16 0.00116745
5 *233:EN *64:12 4.30364e-05
6 *238:I *234:I 0.00017232
7 *238:I *235:EN 6.36442e-06
8 *238:I *236:EN 5.14405e-06
9 *238:I *239:I 6.52371e-05
10 *238:I *269:I 0.000707802
11 *238:I *64:12 1.2102e-05
12 *22:16 *61:34 8.81341e-06
13 *22:16 *64:12 0
14 *270:I *238:I 1.65858e-05
15 *360:I *22:16 3.83835e-06
*RES
1 *168:Z *22:16 19.3839 
2 *22:16 *238:I 11.4925 
3 *22:16 *233:EN 9.21814 
*END

*D_NET *23 0.00239887
*CONN
*I *206:EN I *D gf180mcu_fd_sc_mcu7t5v0__invz_2
*I *211:I I *D gf180mcu_fd_sc_mcu7t5v0__inv_1
*I *178:Z O *D gf180mcu_fd_sc_mcu7t5v0__dlyd_2
*CAP
1 *206:EN 0
2 *211:I 0.0001949
3 *178:Z 0.00095149
4 *23:14 0.00114639
5 *211:I *208:EN 0
6 *23:14 *206:ZN 7.99681e-05
7 *23:14 *207:EN 2.6126e-05
8 *23:14 *212:I 0
9 *23:14 *47:27 0
10 *23:14 *65:8 0
*RES
1 *178:Z *23:14 16.9229 
2 *23:14 *211:I 5.24085 
3 *23:14 *206:EN 4.23 
*END

*D_NET *24 0.000697538
*CONN
*I *183:I I *D gf180mcu_fd_sc_mcu7t5v0__clkinv_2
*I *180:ZN O *D gf180mcu_fd_sc_mcu7t5v0__invz_2
*I *182:ZN O *D gf180mcu_fd_sc_mcu7t5v0__invz_4
*CAP
1 *183:I 0.00020138
2 *180:ZN 0.000136904
3 *182:ZN 0.000338284
4 *19:16 *180:ZN 2.09703e-05
*RES
1 *182:ZN *180:ZN 9.21814 
2 *182:ZN *183:I 9.34449 
*END

*D_NET *25 0.00181689
*CONN
*I *179:I I *D gf180mcu_fd_sc_mcu7t5v0__invz_2
*I *183:ZN O *D gf180mcu_fd_sc_mcu7t5v0__clkinv_2
*CAP
1 *179:I 0.000550568
2 *183:ZN 0.000550568
3 *179:I *179:ZN 0.000208101
4 *179:I *181:EN 3.1768e-05
5 *179:I *275:EN 0.000330425
6 *179:I *26:10 6.84755e-05
7 *179:I *26:12 7.69893e-05
*RES
1 *183:ZN *179:I 20.2617 
*END

*D_NET *26 0.0038445
*CONN
*I *275:I I *D gf180mcu_fd_sc_mcu7t5v0__invz_2
*I *277:I I *D gf180mcu_fd_sc_mcu7t5v0__invz_4
*I *276:I I *D gf180mcu_fd_sc_mcu7t5v0__invz_8
*I *179:ZN O *D gf180mcu_fd_sc_mcu7t5v0__invz_2
*I *181:ZN O *D gf180mcu_fd_sc_mcu7t5v0__invz_8
*CAP
1 *275:I 6.48209e-05
2 *277:I 0
3 *276:I 0.000199001
4 *179:ZN 0.000314661
5 *181:ZN 0.000479225
6 *26:27 0.0004345
7 *26:12 0.000682017
8 *26:10 0.000675903
9 *179:ZN *181:EN 9.66756e-05
10 *179:ZN *277:EN 4.35447e-05
11 *179:ZN *278:I 0
12 *179:ZN *280:I 0
13 *275:I *275:ZN 2.79075e-05
14 *276:I *278:I 0.000201364
15 *26:10 *121:8 0
16 *26:12 *278:I 0
17 *26:12 *121:8 0
18 *26:27 *275:ZN 0.000141286
19 *26:27 *277:EN 0
20 *26:27 *278:I 6.7545e-06
21 *179:I *179:ZN 0.000208101
22 *179:I *26:10 6.84755e-05
23 *179:I *26:12 7.69893e-05
24 *181:I *275:I 0
25 *181:I *26:27 0.000123273
*RES
1 *181:ZN *26:10 10.3553 
2 *26:10 *26:12 0.694959 
3 *26:12 *179:ZN 10.6081 
4 *26:12 *26:27 5.73612 
5 *26:27 *276:I 5.69325 
6 *26:27 *277:I 4.23 
7 *26:10 *275:I 8.77589 
*END

*D_NET *27 0.00170875
*CONN
*I *181:EN I *D gf180mcu_fd_sc_mcu7t5v0__invz_8
*I *184:ZN O *D gf180mcu_fd_sc_mcu7t5v0__inv_1
*CAP
1 *181:EN 0.000530884
2 *184:ZN 0.000530884
3 *181:EN *179:EN 0.000179173
4 *181:EN *182:EN 0
5 *181:EN *272:A1 0
6 *181:EN *275:EN 0.000339367
7 *181:EN *277:EN 0
8 *181:EN *280:I 0
9 *181:EN *79:8 0
10 *179:I *181:EN 3.1768e-05
11 *179:ZN *181:EN 9.66756e-05
*RES
1 *184:ZN *181:EN 20.1917 
*END

*D_NET *28 0.000179048
*CONN
*I *182:EN I *D gf180mcu_fd_sc_mcu7t5v0__invz_4
*I *185:ZN O *D gf180mcu_fd_sc_mcu7t5v0__inv_1
*CAP
1 *182:EN 8.95242e-05
2 *185:ZN 8.95242e-05
3 *181:EN *182:EN 0
4 *181:I *182:EN 0
5 *19:16 *182:EN 0
*RES
1 *185:ZN *182:EN 8.94963 
*END

*D_NET *29 0.00295702
*CONN
*I *215:EN I *D gf180mcu_fd_sc_mcu7t5v0__invz_2
*I *220:I I *D gf180mcu_fd_sc_mcu7t5v0__inv_1
*I *177:Z O *D gf180mcu_fd_sc_mcu7t5v0__dlyd_2
*CAP
1 *215:EN 0
2 *220:I 0.00102253
3 *177:Z 0.000394724
4 *29:12 0.00141726
5 *220:I *215:ZN 0
6 *220:I *231:I 0
7 *220:I *71:10 8.60028e-05
8 *29:12 *195:I 3.65042e-05
*RES
1 *177:Z *29:12 14.5853 
2 *29:12 *220:I 18.0601 
3 *29:12 *215:EN 4.23 
*END

*D_NET *30 0.00229311
*CONN
*I *275:EN I *D gf180mcu_fd_sc_mcu7t5v0__invz_2
*I *280:I I *D gf180mcu_fd_sc_mcu7t5v0__inv_1
*I *187:Z O *D gf180mcu_fd_sc_mcu7t5v0__dlyd_2
*CAP
1 *275:EN 0.000284797
2 *280:I 0.000377909
3 *187:Z 0.000139755
4 *30:6 0.000802462
5 *280:I *179:EN 1.3758e-05
6 *179:I *275:EN 0.000330425
7 *179:ZN *280:I 0
8 *181:EN *275:EN 0.000339367
9 *181:EN *280:I 0
10 *181:I *275:EN 4.63999e-06
*RES
1 *187:Z *30:6 4.7986 
2 *30:6 *280:I 5.80945 
3 *30:6 *275:EN 15.0908 
*END

*D_NET *31 0.00133182
*CONN
*I *189:ZN O *D gf180mcu_fd_sc_mcu7t5v0__invz_2
*I *192:I I *D gf180mcu_fd_sc_mcu7t5v0__clkinv_2
*I *191:ZN O *D gf180mcu_fd_sc_mcu7t5v0__invz_4
*CAP
1 *189:ZN 1.09532e-05
2 *192:I 0.000200325
3 *191:ZN 0.00045463
4 *31:14 0.000665909
*RES
1 *191:ZN *31:14 6.50441 
2 *31:14 *192:I 5.10772 
3 *31:14 *189:ZN 4.35636 
*END

*D_NET *32 0.000323972
*CONN
*I *188:I I *D gf180mcu_fd_sc_mcu7t5v0__invz_2
*I *192:ZN O *D gf180mcu_fd_sc_mcu7t5v0__clkinv_2
*CAP
1 *188:I 0.000161986
2 *192:ZN 0.000161986
*RES
1 *192:ZN *188:I 9.28131 
*END

*D_NET *33 0.00612624
*CONN
*I *188:ZN O *D gf180mcu_fd_sc_mcu7t5v0__invz_2
*I *198:I I *D gf180mcu_fd_sc_mcu7t5v0__invz_2
*I *199:I I *D gf180mcu_fd_sc_mcu7t5v0__invz_8
*I *200:I I *D gf180mcu_fd_sc_mcu7t5v0__invz_4
*I *190:ZN O *D gf180mcu_fd_sc_mcu7t5v0__invz_8
*CAP
1 *188:ZN 0.000145972
2 *198:I 0.000185337
3 *199:I 0.000646885
4 *200:I 2.43803e-05
5 *190:ZN 0.000246281
6 *33:16 0.00103457
7 *33:12 0.00183392
8 *33:10 0.00167754
9 *198:I *198:ZN 0.000129111
10 *199:I *197:I 0
11 *199:I *198:ZN 0
12 *199:I *201:I 2.60338e-05
13 *199:I *78:10 0.000161052
14 *200:I *198:EN 2.51812e-06
15 *200:I *78:10 1.26428e-05
16 *33:12 *188:EN 0
17 *33:12 *51:8 0
*RES
1 *190:ZN *33:10 9.53403 
2 *33:10 *33:12 7.2023 
3 *33:12 *33:16 5.43038 
4 *33:16 *200:I 4.34733 
5 *33:16 *199:I 15.4698 
6 *33:12 *198:I 9.53403 
7 *33:10 *188:ZN 9.09178 
*END

*D_NET *34 0.000492122
*CONN
*I *190:EN I *D gf180mcu_fd_sc_mcu7t5v0__invz_8
*I *193:ZN O *D gf180mcu_fd_sc_mcu7t5v0__inv_1
*CAP
1 *190:EN 0.00022678
2 *193:ZN 0.00022678
3 *190:I *190:EN 3.85615e-05
*RES