*SPEF "ieee 1481-1999"
*DESIGN "digital_pll"
*DATE "21:03:43 Thursday September 25, 2025"
*VENDOR "The OpenROAD Project"
*PROGRAM "OpenROAD"
*VERSION "9f7714859944860f802c7c961ba83ab4ae83849f"
*DESIGN_FLOW "NAME_SCOPE LOCAL" "PIN_CAP NONE"
*DIVIDER /
*DELIMITER :
*BUS_DELIMITER []
*T_UNIT 1 NS
*C_UNIT 1 PF
*R_UNIT 1 OHM
*L_UNIT 1 HENRY

*NAME_MAP
*1 net35
*2 net36
*3 dco
*4 div[0]
*5 div[1]
*6 div[2]
*7 div[3]
*8 div[4]
*9 enable
*10 ext_trim[0]
*11 ext_trim[10]
*12 ext_trim[11]
*13 ext_trim[12]
*14 ext_trim[13]
*15 ext_trim[14]
*16 ext_trim[15]
*17 ext_trim[16]
*18 ext_trim[17]
*19 ext_trim[18]
*20 ext_trim[19]
*21 ext_trim[1]
*22 ext_trim[20]
*23 ext_trim[21]
*24 ext_trim[22]
*25 ext_trim[23]
*26 ext_trim[24]
*27 ext_trim[25]
*28 ext_trim[2]
*29 ext_trim[3]
*30 ext_trim[4]
*31 ext_trim[5]
*32 ext_trim[6]
*33 ext_trim[7]
*34 ext_trim[8]
*35 ext_trim[9]
*36 osc
*37 otrim\[0\]
*38 otrim\[10\]
*39 otrim\[11\]
*40 otrim\[12\]
*41 otrim\[13\]
*42 otrim\[14\]
*43 otrim\[15\]
*44 otrim\[16\]
*45 otrim\[17\]
*46 otrim\[18\]
*47 otrim\[19\]
*48 otrim\[1\]
*49 otrim\[20\]
*50 otrim\[21\]
*51 otrim\[22\]
*52 otrim\[23\]
*53 otrim\[24\]
*54 otrim\[25\]
*55 otrim\[2\]
*56 otrim\[3\]
*57 otrim\[4\]
*58 otrim\[5\]
*59 otrim\[6\]
*60 otrim\[7\]
*61 otrim\[8\]
*62 otrim\[9\]
*63 resetb
*66 net1
*67 net2
*68 net3
*69 net4
*70 net5
*71 net6
*72 net7
*73 net8
*74 net9
*75 net10
*76 net11
*77 net12
*78 net13
*79 net14
*80 net15
*81 net16
*82 net17
*83 net18
*84 net19
*85 net20
*86 net21
*87 net22
*88 net23
*89 net24
*90 net25
*91 net26
*92 net27
*93 net28
*94 net29
*95 net30
*96 net31
*97 net32
*98 net33
*99 net34
*100 clockp[0]
*101 clockp[1]
*102 pll_control
*103 ringosc
*104 PHY_EDGE_ROW_0_Right_0
*105 PHY_EDGE_ROW_51_Right_1
*106 PHY_EDGE_ROW_52_Right_2
*107 PHY_EDGE_ROW_53_Right_3
*108 PHY_EDGE_ROW_54_Right_4
*109 PHY_EDGE_ROW_55_Right_5
*110 PHY_EDGE_ROW_56_Right_6
*111 PHY_EDGE_ROW_57_Right_7
*112 PHY_EDGE_ROW_58_Right_8
*113 PHY_EDGE_ROW_59_Right_9
*114 PHY_EDGE_ROW_60_Right_10
*115 PHY_EDGE_ROW_61_Right_11
*116 PHY_EDGE_ROW_62_Right_12
*117 PHY_EDGE_ROW_63_Right_13
*118 PHY_EDGE_ROW_64_Right_14
*119 PHY_EDGE_ROW_65_Right_15
*120 PHY_EDGE_ROW_66_Right_16
*121 PHY_EDGE_ROW_67_Right_17
*122 PHY_EDGE_ROW_68_Right_18
*123 PHY_EDGE_ROW_69_Right_19
*124 PHY_EDGE_ROW_70_Right_20
*125 PHY_EDGE_ROW_71_Right_21
*126 PHY_EDGE_ROW_72_Right_22
*127 PHY_EDGE_ROW_73_Right_23
*128 PHY_EDGE_ROW_74_Right_24
*129 PHY_EDGE_ROW_75_Right_25
*130 PHY_EDGE_ROW_76_Right_26
*131 PHY_EDGE_ROW_77_Right_27
*132 PHY_EDGE_ROW_78_Right_28
*133 PHY_EDGE_ROW_79_Right_29
*134 PHY_EDGE_ROW_80_Right_30
*135 PHY_EDGE_ROW_121_Right_31
*136 PHY_EDGE_ROW_1_2_Right_32
*137 PHY_EDGE_ROW_2_2_Right_33
*138 PHY_EDGE_ROW_3_2_Right_34
*139 PHY_EDGE_ROW_4_2_Right_35
*140 PHY_EDGE_ROW_5_2_Right_36
*141 PHY_EDGE_ROW_6_2_Right_37
*142 PHY_EDGE_ROW_7_2_Right_38
*143 PHY_EDGE_ROW_8_2_Right_39
*144 PHY_EDGE_ROW_9_2_Right_40
*145 PHY_EDGE_ROW_10_2_Right_41
*146 PHY_EDGE_ROW_11_2_Right_42
*147 PHY_EDGE_ROW_12_2_Right_43
*148 PHY_EDGE_ROW_13_2_Right_44
*149 PHY_EDGE_ROW_14_2_Right_45
*150 PHY_EDGE_ROW_15_2_Right_46
*151 PHY_EDGE_ROW_16_2_Right_47
*152 PHY_EDGE_ROW_17_2_Right_48
*153 PHY_EDGE_ROW_18_2_Right_49
*154 PHY_EDGE_ROW_19_2_Right_50
*155 PHY_EDGE_ROW_20_2_Right_51
*156 PHY_EDGE_ROW_21_2_Right_52
*157 PHY_EDGE_ROW_22_2_Right_53
*158 PHY_EDGE_ROW_23_2_Right_54
*159 PHY_EDGE_ROW_24_2_Right_55
*160 PHY_EDGE_ROW_25_2_Right_56
*161 PHY_EDGE_ROW_26_2_Right_57
*162 PHY_EDGE_ROW_27_2_Right_58
*163 PHY_EDGE_ROW_28_2_Right_59
*164 PHY_EDGE_ROW_29_2_Right_60
*165 PHY_EDGE_ROW_30_2_Right_61
*166 PHY_EDGE_ROW_31_2_Right_62
*167 PHY_EDGE_ROW_32_2_Right_63
*168 PHY_EDGE_ROW_33_2_Right_64
*169 PHY_EDGE_ROW_34_2_Right_65
*170 PHY_EDGE_ROW_35_2_Right_66
*171 PHY_EDGE_ROW_36_2_Right_67
*172 PHY_EDGE_ROW_37_2_Right_68
*173 PHY_EDGE_ROW_38_2_Right_69
*174 PHY_EDGE_ROW_39_2_Right_70
*175 PHY_EDGE_ROW_40_2_Right_71
*176 PHY_EDGE_ROW_41_2_Right_72
*177 PHY_EDGE_ROW_42_2_Right_73
*178 PHY_EDGE_ROW_43_2_Right_74
*179 PHY_EDGE_ROW_44_2_Right_75
*180 PHY_EDGE_ROW_45_2_Right_76
*181 PHY_EDGE_ROW_46_2_Right_77
*182 PHY_EDGE_ROW_47_2_Right_78
*183 PHY_EDGE_ROW_48_2_Right_79
*184 PHY_EDGE_ROW_49_2_Right_80
*185 PHY_EDGE_ROW_50_2_Right_81
*186 PHY_EDGE_ROW_81_2_Right_82
*187 PHY_EDGE_ROW_82_2_Right_83
*188 PHY_EDGE_ROW_83_2_Right_84
*189 PHY_EDGE_ROW_84_2_Right_85
*190 PHY_EDGE_ROW_85_2_Right_86
*191 PHY_EDGE_ROW_86_2_Right_87
*192 PHY_EDGE_ROW_87_2_Right_88
*193 PHY_EDGE_ROW_88_2_Right_89
*194 PHY_EDGE_ROW_89_2_Right_90
*195 PHY_EDGE_ROW_90_2_Right_91
*196 PHY_EDGE_ROW_91_2_Right_92
*197 PHY_EDGE_ROW_92_2_Right_93
*198 PHY_EDGE_ROW_93_2_Right_94
*199 PHY_EDGE_ROW_94_2_Right_95
*200 PHY_EDGE_ROW_95_2_Right_96
*201 PHY_EDGE_ROW_96_2_Right_97
*202 PHY_EDGE_ROW_97_2_Right_98
*203 PHY_EDGE_ROW_98_2_Right_99
*204 PHY_EDGE_ROW_99_2_Right_100
*205 PHY_EDGE_ROW_100_2_Right_101
*206 PHY_EDGE_ROW_101_2_Right_102
*207 PHY_EDGE_ROW_102_2_Right_103
*208 PHY_EDGE_ROW_103_2_Right_104
*209 PHY_EDGE_ROW_104_2_Right_105
*210 PHY_EDGE_ROW_105_2_Right_106
*211 PHY_EDGE_ROW_106_2_Right_107
*212 PHY_EDGE_ROW_107_2_Right_108
*213 PHY_EDGE_ROW_108_2_Right_109
*214 PHY_EDGE_ROW_109_2_Right_110
*215 PHY_EDGE_ROW_110_2_Right_111
*216 PHY_EDGE_ROW_111_2_Right_112
*217 PHY_EDGE_ROW_112_2_Right_113
*218 PHY_EDGE_ROW_113_2_Right_114
*219 PHY_EDGE_ROW_114_2_Right_115
*220 PHY_EDGE_ROW_115_2_Right_116
*221 PHY_EDGE_ROW_116_2_Right_117
*222 PHY_EDGE_ROW_117_2_Right_118
*223 PHY_EDGE_ROW_118_2_Right_119
*224 PHY_EDGE_ROW_119_2_Right_120
*225 PHY_EDGE_ROW_120_2_Right_121
*226 PHY_EDGE_ROW_0_Left_122
*227 PHY_EDGE_ROW_2_1_Left_123
*228 PHY_EDGE_ROW_3_1_Left_124
*229 PHY_EDGE_ROW_4_1_Left_125
*230 PHY_EDGE_ROW_5_1_Left_126
*231 PHY_EDGE_ROW_6_1_Left_127
*232 PHY_EDGE_ROW_7_1_Left_128
*233 PHY_EDGE_ROW_8_1_Left_129
*234 PHY_EDGE_ROW_9_1_Left_130
*235 PHY_EDGE_ROW_10_1_Left_131
*236 PHY_EDGE_ROW_11_1_Left_132
*237 PHY_EDGE_ROW_12_1_Left_133
*238 PHY_EDGE_ROW_13_1_Left_134
*239 PHY_EDGE_ROW_14_1_Left_135
*240 PHY_EDGE_ROW_15_1_Left_136
*241 PHY_EDGE_ROW_16_1_Left_137
*242 PHY_EDGE_ROW_17_1_Left_138
*243 PHY_EDGE_ROW_18_1_Left_139
*244 PHY_EDGE_ROW_19_1_Left_140
*245 PHY_EDGE_ROW_20_1_Left_141
*246 PHY_EDGE_ROW_21_1_Left_142
*247 PHY_EDGE_ROW_22_1_Left_143
*248 PHY_EDGE_ROW_23_1_Left_144
*249 PHY_EDGE_ROW_24_1_Left_145
*250 PHY_EDGE_ROW_25_1_Left_146
*251 PHY_EDGE_ROW_26_1_Left_147
*252 PHY_EDGE_ROW_27_1_Left_148
*253 PHY_EDGE_ROW_28_1_Left_149
*254 PHY_EDGE_ROW_29_1_Left_150
*255 PHY_EDGE_ROW_30_1_Left_151
*256 PHY_EDGE_ROW_31_1_Left_152
*257 PHY_EDGE_ROW_32_1_Left_153
*258 PHY_EDGE_ROW_33_1_Left_154
*259 PHY_EDGE_ROW_34_1_Left_155
*260 PHY_EDGE_ROW_35_1_Left_156
*261 PHY_EDGE_ROW_36_1_Left_157
*262 PHY_EDGE_ROW_37_1_Left_158
*263 PHY_EDGE_ROW_38_1_Left_159
*264 PHY_EDGE_ROW_39_1_Left_160
*265 PHY_EDGE_ROW_40_1_Left_161
*266 PHY_EDGE_ROW_41_1_Left_162
*267 PHY_EDGE_ROW_42_1_Left_163
*268 PHY_EDGE_ROW_43_1_Left_164
*269 PHY_EDGE_ROW_44_1_Left_165
*270 PHY_EDGE_ROW_45_1_Left_166
*271 PHY_EDGE_ROW_46_1_Left_167
*272 PHY_EDGE_ROW_47_1_Left_168
*273 PHY_EDGE_ROW_48_1_Left_169
*274 PHY_EDGE_ROW_49_1_Left_170
*275 PHY_EDGE_ROW_50_1_Left_171
*276 PHY_EDGE_ROW_81_1_Left_172
*277 PHY_EDGE_ROW_51_Left_173
*278 PHY_EDGE_ROW_52_Left_174
*279 PHY_EDGE_ROW_53_Left_175
*280 PHY_EDGE_ROW_54_Left_176
*281 PHY_EDGE_ROW_55_Left_177
*282 PHY_EDGE_ROW_56_Left_178
*283 PHY_EDGE_ROW_57_Left_179
*284 PHY_EDGE_ROW_58_Left_180
*285 PHY_EDGE_ROW_59_Left_181
*286 PHY_EDGE_ROW_60_Left_182
*287 PHY_EDGE_ROW_61_Left_183
*288 PHY_EDGE_ROW_62_Left_184
*289 PHY_EDGE_ROW_63_Left_185
*290 PHY_EDGE_ROW_64_Left_186
*291 PHY_EDGE_ROW_65_Left_187
*292 PHY_EDGE_ROW_66_Left_188
*293 PHY_EDGE_ROW_67_Left_189
*294 PHY_EDGE_ROW_68_Left_190
*295 PHY_EDGE_ROW_69_Left_191
*296 PHY_EDGE_ROW_70_Left_192
*297 PHY_EDGE_ROW_71_Left_193
*298 PHY_EDGE_ROW_72_Left_194
*299 PHY_EDGE_ROW_73_Left_195
*300 PHY_EDGE_ROW_74_Left_196
*301 PHY_EDGE_ROW_75_Left_197
*302 PHY_EDGE_ROW_76_Left_198
*303 PHY_EDGE_ROW_77_Left_199
*304 PHY_EDGE_ROW_78_Left_200
*305 PHY_EDGE_ROW_79_Left_201
*306 PHY_EDGE_ROW_80_Left_202
*307 PHY_EDGE_ROW_82_1_Left_203
*308 PHY_EDGE_ROW_83_1_Left_204
*309 PHY_EDGE_ROW_84_1_Left_205
*310 PHY_EDGE_ROW_85_1_Left_206
*311 PHY_EDGE_ROW_86_1_Left_207
*312 PHY_EDGE_ROW_87_1_Left_208
*313 PHY_EDGE_ROW_88_1_Left_209
*314 PHY_EDGE_ROW_89_1_Left_210
*315 PHY_EDGE_ROW_90_1_Left_211
*316 PHY_EDGE_ROW_91_1_Left_212
*317 PHY_EDGE_ROW_92_1_Left_213
*318 PHY_EDGE_ROW_93_1_Left_214
*319 PHY_EDGE_ROW_94_1_Left_215
*320 PHY_EDGE_ROW_95_1_Left_216
*321 PHY_EDGE_ROW_96_1_Left_217
*322 PHY_EDGE_ROW_97_1_Left_218
*323 PHY_EDGE_ROW_98_1_Left_219
*324 PHY_EDGE_ROW_99_1_Left_220
*325 PHY_EDGE_ROW_100_1_Left_221
*326 PHY_EDGE_ROW_101_1_Left_222
*327 PHY_EDGE_ROW_102_1_Left_223
*328 PHY_EDGE_ROW_103_1_Left_224
*329 PHY_EDGE_ROW_104_1_Left_225
*330 PHY_EDGE_ROW_105_1_Left_226
*331 PHY_EDGE_ROW_106_1_Left_227
*332 PHY_EDGE_ROW_107_1_Left_228
*333 PHY_EDGE_ROW_108_1_Left_229
*334 PHY_EDGE_ROW_109_1_Left_230
*335 PHY_EDGE_ROW_110_1_Left_231
*336 PHY_EDGE_ROW_111_1_Left_232
*337 PHY_EDGE_ROW_112_1_Left_233
*338 PHY_EDGE_ROW_113_1_Left_234
*339 PHY_EDGE_ROW_114_1_Left_235
*340 PHY_EDGE_ROW_115_1_Left_236
*341 PHY_EDGE_ROW_116_1_Left_237
*342 PHY_EDGE_ROW_117_1_Left_238
*343 PHY_EDGE_ROW_118_1_Left_239
*344 PHY_EDGE_ROW_119_1_Left_240
*345 PHY_EDGE_ROW_120_1_Left_241
*346 PHY_EDGE_ROW_121_Left_242
*347 PHY_EDGE_ROW_1_1_Left_243
*348 PHY_EDGE_ROW_1_2_Left_244
*349 PHY_EDGE_ROW_2_2_Left_245
*350 PHY_EDGE_ROW_3_2_Left_246
*351 PHY_EDGE_ROW_4_2_Left_247
*352 PHY_EDGE_ROW_5_2_Left_248
*353 PHY_EDGE_ROW_6_2_Left_249
*354 PHY_EDGE_ROW_7_2_Left_250
*355 PHY_EDGE_ROW_8_2_Left_251
*356 PHY_EDGE_ROW_9_2_Left_252
*357 PHY_EDGE_ROW_10_2_Left_253
*358 PHY_EDGE_ROW_11_2_Left_254
*359 PHY_EDGE_ROW_12_2_Left_255
*360 PHY_EDGE_ROW_13_2_Left_256
*361 PHY_EDGE_ROW_14_2_Left_257
*362 PHY_EDGE_ROW_15_2_Left_258
*363 PHY_EDGE_ROW_16_2_Left_259
*364 PHY_EDGE_ROW_17_2_Left_260
*365 PHY_EDGE_ROW_18_2_Left_261
*366 PHY_EDGE_ROW_19_2_Left_262
*367 PHY_EDGE_ROW_20_2_Left_263
*368 PHY_EDGE_ROW_21_2_Left_264
*369 PHY_EDGE_ROW_22_2_Left_265
*370 PHY_EDGE_ROW_23_2_Left_266
*371 PHY_EDGE_ROW_24_2_Left_267
*372 PHY_EDGE_ROW_25_2_Left_268
*373 PHY_EDGE_ROW_26_2_Left_269
*374 PHY_EDGE_ROW_27_2_Left_270
*375 PHY_EDGE_ROW_28_2_Left_271
*376 PHY_EDGE_ROW_29_2_Left_272
*377 PHY_EDGE_ROW_30_2_Left_273
*378 PHY_EDGE_ROW_31_2_Left_274
*379 PHY_EDGE_ROW_32_2_Left_275
*380 PHY_EDGE_ROW_33_2_Left_276
*381 PHY_EDGE_ROW_34_2_Left_277
*382 PHY_EDGE_ROW_35_2_Left_278
*383 PHY_EDGE_ROW_36_2_Left_279
*384 PHY_EDGE_ROW_37_2_Left_280
*385 PHY_EDGE_ROW_38_2_Left_281
*386 PHY_EDGE_ROW_39_2_Left_282
*387 PHY_EDGE_ROW_40_2_Left_283
*388 PHY_EDGE_ROW_41_2_Left_284
*389 PHY_EDGE_ROW_42_2_Left_285
*390 PHY_EDGE_ROW_43_2_Left_286
*391 PHY_EDGE_ROW_44_2_Left_287
*392 PHY_EDGE_ROW_45_2_Left_288
*393 PHY_EDGE_ROW_46_2_Left_289
*394 PHY_EDGE_ROW_47_2_Left_290
*395 PHY_EDGE_ROW_48_2_Left_291
*396 PHY_EDGE_ROW_49_2_Left_292
*397 PHY_EDGE_ROW_50_2_Left_293
*398 PHY_EDGE_ROW_2_1_Right_294
*399 PHY_EDGE_ROW_3_1_Right_295
*400 PHY_EDGE_ROW_4_1_Right_296
*401 PHY_EDGE_ROW_5_1_Right_297
*402 PHY_EDGE_ROW_6_1_Right_298
*403 PHY_EDGE_ROW_7_1_Right_299
*404 PHY_EDGE_ROW_8_1_Right_300
*405 PHY_EDGE_ROW_9_1_Right_301
*406 PHY_EDGE_ROW_10_1_Right_302
*407 PHY_EDGE_ROW_11_1_Right_303
*408 PHY_EDGE_ROW_12_1_Right_304
*409 PHY_EDGE_ROW_13_1_Right_305
*410 PHY_EDGE_ROW_14_1_Right_306
*411 PHY_EDGE_ROW_15_1_Right_307
*412 PHY_EDGE_ROW_16_1_Right_308
*413 PHY_EDGE_ROW_17_1_Right_309
*414 PHY_EDGE_ROW_18_1_Right_310
*415 PHY_EDGE_ROW_19_1_Right_311
*416 PHY_EDGE_ROW_20_1_Right_312
*417 PHY_EDGE_ROW_21_1_Right_313
*418 PHY_EDGE_ROW_22_1_Right_314
*419 PHY_EDGE_ROW_23_1_Right_315
*420 PHY_EDGE_ROW_24_1_Right_316
*421 PHY_EDGE_ROW_25_1_Right_317
*422 PHY_EDGE_ROW_26_1_Right_318
*423 PHY_EDGE_ROW_27_1_Right_319
*424 PHY_EDGE_ROW_28_1_Right_320
*425 PHY_EDGE_ROW_29_1_Right_321
*426 PHY_EDGE_ROW_30_1_Right_322
*427 PHY_EDGE_ROW_31_1_Right_323
*428 PHY_EDGE_ROW_32_1_Right_324
*429 PHY_EDGE_ROW_33_1_Right_325
*430 PHY_EDGE_ROW_34_1_Right_326
*431 PHY_EDGE_ROW_35_1_Right_327
*432 PHY_EDGE_ROW_36_1_Right_328
*433 PHY_EDGE_ROW_37_1_Right_329
*434 PHY_EDGE_ROW_38_1_Right_330
*435 PHY_EDGE_ROW_39_1_Right_331
*436 PHY_EDGE_ROW_40_1_Right_332
*437 PHY_EDGE_ROW_41_1_Right_333
*438 PHY_EDGE_ROW_42_1_Right_334
*439 PHY_EDGE_ROW_43_1_Right_335
*440 PHY_EDGE_ROW_44_1_Right_336
*441 PHY_EDGE_ROW_45_1_Right_337
*442 PHY_EDGE_ROW_46_1_Right_338
*443 PHY_EDGE_ROW_47_1_Right_339
*444 PHY_EDGE_ROW_48_1_Right_340
*445 PHY_EDGE_ROW_49_1_Right_341
*446 PHY_EDGE_ROW_50_1_Right_342
*447 PHY_EDGE_ROW_1_1_Right_343
*448 PHY_EDGE_ROW_81_2_Left_344
*449 PHY_EDGE_ROW_82_2_Left_345
*450 PHY_EDGE_ROW_83_2_Left_346
*451 PHY_EDGE_ROW_84_2_Left_347
*452 PHY_EDGE_ROW_85_2_Left_348
*453 PHY_EDGE_ROW_86_2_Left_349
*454 PHY_EDGE_ROW_87_2_Left_350
*455 PHY_EDGE_ROW_88_2_Left_351
*456 PHY_EDGE_ROW_89_2_Left_352
*457 PHY_EDGE_ROW_90_2_Left_353
*458 PHY_EDGE_ROW_91_2_Left_354
*459 PHY_EDGE_ROW_92_2_Left_355
*460 PHY_EDGE_ROW_93_2_Left_356
*461 PHY_EDGE_ROW_94_2_Left_357
*462 PHY_EDGE_ROW_95_2_Left_358
*463 PHY_EDGE_ROW_96_2_Left_359
*464 PHY_EDGE_ROW_97_2_Left_360
*465 PHY_EDGE_ROW_98_2_Left_361
*466 PHY_EDGE_ROW_99_2_Left_362
*467 PHY_EDGE_ROW_100_2_Left_363
*468 PHY_EDGE_ROW_101_2_Left_364
*469 PHY_EDGE_ROW_102_2_Left_365
*470 PHY_EDGE_ROW_103_2_Left_366
*471 PHY_EDGE_ROW_104_2_Left_367
*472 PHY_EDGE_ROW_105_2_Left_368
*473 PHY_EDGE_ROW_106_2_Left_369
*474 PHY_EDGE_ROW_107_2_Left_370
*475 PHY_EDGE_ROW_108_2_Left_371
*476 PHY_EDGE_ROW_109_2_Left_372
*477 PHY_EDGE_ROW_110_2_Left_373
*478 PHY_EDGE_ROW_111_2_Left_374
*479 PHY_EDGE_ROW_112_2_Left_375
*480 PHY_EDGE_ROW_113_2_Left_376
*481 PHY_EDGE_ROW_114_2_Left_377
*482 PHY_EDGE_ROW_115_2_Left_378
*483 PHY_EDGE_ROW_116_2_Left_379
*484 PHY_EDGE_ROW_117_2_Left_380
*485 PHY_EDGE_ROW_118_2_Left_381
*486 PHY_EDGE_ROW_119_2_Left_382
*487 PHY_EDGE_ROW_120_2_Left_383
*488 PHY_EDGE_ROW_81_1_Right_384
*489 PHY_EDGE_ROW_82_1_Right_385
*490 PHY_EDGE_ROW_83_1_Right_386
*491 PHY_EDGE_ROW_84_1_Right_387
*492 PHY_EDGE_ROW_85_1_Right_388
*493 PHY_EDGE_ROW_86_1_Right_389
*494 PHY_EDGE_ROW_87_1_Right_390
*495 PHY_EDGE_ROW_88_1_Right_391
*496 PHY_EDGE_ROW_89_1_Right_392
*497 PHY_EDGE_ROW_90_1_Right_393
*498 PHY_EDGE_ROW_91_1_Right_394
*499 PHY_EDGE_ROW_92_1_Right_395
*500 PHY_EDGE_ROW_93_1_Right_396
*501 PHY_EDGE_ROW_94_1_Right_397
*502 PHY_EDGE_ROW_95_1_Right_398
*503 PHY_EDGE_ROW_96_1_Right_399
*504 PHY_EDGE_ROW_97_1_Right_400
*505 PHY_EDGE_ROW_98_1_Right_401
*506 PHY_EDGE_ROW_99_1_Right_402
*507 PHY_EDGE_ROW_100_1_Right_403
*508 PHY_EDGE_ROW_101_1_Right_404
*509 PHY_EDGE_ROW_102_1_Right_405
*510 PHY_EDGE_ROW_103_1_Right_406
*511 PHY_EDGE_ROW_104_1_Right_407
*512 PHY_EDGE_ROW_105_1_Right_408
*513 PHY_EDGE_ROW_106_1_Right_409
*514 PHY_EDGE_ROW_107_1_Right_410
*515 PHY_EDGE_ROW_108_1_Right_411
*516 PHY_EDGE_ROW_109_1_Right_412
*517 PHY_EDGE_ROW_110_1_Right_413
*518 PHY_EDGE_ROW_111_1_Right_414
*519 PHY_EDGE_ROW_112_1_Right_415
*520 PHY_EDGE_ROW_113_1_Right_416
*521 PHY_EDGE_ROW_114_1_Right_417
*522 PHY_EDGE_ROW_115_1_Right_418
*523 PHY_EDGE_ROW_116_1_Right_419
*524 PHY_EDGE_ROW_117_1_Right_420
*525 PHY_EDGE_ROW_118_1_Right_421
*526 PHY_EDGE_ROW_119_1_Right_422
*527 PHY_EDGE_ROW_120_1_Right_423
*528 TAP_TAPCELL_ROW_0_424
*529 TAP_TAPCELL_ROW_0_425
*530 TAP_TAPCELL_ROW_0_426
*531 TAP_TAPCELL_ROW_0_427
*532 TAP_TAPCELL_ROW_2_1_428
*533 TAP_TAPCELL_ROW_3_1_429
*534 TAP_TAPCELL_ROW_4_1_430
*535 TAP_TAPCELL_ROW_5_1_431
*536 TAP_TAPCELL_ROW_6_1_432
*537 TAP_TAPCELL_ROW_7_1_433
*538 TAP_TAPCELL_ROW_8_1_434
*539 TAP_TAPCELL_ROW_9_1_435
*540 TAP_TAPCELL_ROW_10_1_436
*541 TAP_TAPCELL_ROW_11_1_437
*542 TAP_TAPCELL_ROW_12_1_438
*543 TAP_TAPCELL_ROW_13_1_439
*544 TAP_TAPCELL_ROW_14_1_440
*545 TAP_TAPCELL_ROW_15_1_441
*546 TAP_TAPCELL_ROW_16_1_442
*547 TAP_TAPCELL_ROW_17_1_443
*548 TAP_TAPCELL_ROW_18_1_444
*549 TAP_TAPCELL_ROW_19_1_445
*550 TAP_TAPCELL_ROW_20_1_446
*551 TAP_TAPCELL_ROW_21_1_447
*552 TAP_TAPCELL_ROW_22_1_448
*553 TAP_TAPCELL_ROW_23_1_449
*554 TAP_TAPCELL_ROW_24_1_450
*555 TAP_TAPCELL_ROW_25_1_451
*556 TAP_TAPCELL_ROW_26_1_452
*557 TAP_TAPCELL_ROW_27_1_453
*558 TAP_TAPCELL_ROW_28_1_454
*559 TAP_TAPCELL_ROW_29_1_455
*560 TAP_TAPCELL_ROW_30_1_456
*561 TAP_TAPCELL_ROW_31_1_457
*562 TAP_TAPCELL_ROW_32_1_458
*563 TAP_TAPCELL_ROW_33_1_459
*564 TAP_TAPCELL_ROW_34_1_460
*565 TAP_TAPCELL_ROW_35_1_461
*566 TAP_TAPCELL_ROW_36_1_462
*567 TAP_TAPCELL_ROW_37_1_463
*568 TAP_TAPCELL_ROW_38_1_464
*569 TAP_TAPCELL_ROW_39_1_465
*570 TAP_TAPCELL_ROW_40_1_466
*571 TAP_TAPCELL_ROW_41_1_467
*572 TAP_TAPCELL_ROW_42_1_468
*573 TAP_TAPCELL_ROW_43_1_469
*574 TAP_TAPCELL_ROW_44_1_470
*575 TAP_TAPCELL_ROW_45_1_471
*576 TAP_TAPCELL_ROW_46_1_472
*577 TAP_TAPCELL_ROW_47_1_473
*578 TAP_TAPCELL_ROW_48_1_474
*579 TAP_TAPCELL_ROW_49_1_475
*580 TAP_TAPCELL_ROW_50_1_476
*581 TAP_TAPCELL_ROW_51_477
*582 TAP_TAPCELL_ROW_51_478
*583 TAP_TAPCELL_ROW_51_479
*584 TAP_TAPCELL_ROW_51_480
*585 TAP_TAPCELL_ROW_52_481
*586 TAP_TAPCELL_ROW_52_482
*587 TAP_TAPCELL_ROW_53_483
*588 TAP_TAPCELL_ROW_53_484
*589 TAP_TAPCELL_ROW_54_485
*590 TAP_TAPCELL_ROW_54_486
*591 TAP_TAPCELL_ROW_55_487
*592 TAP_TAPCELL_ROW_55_488
*593 TAP_TAPCELL_ROW_56_489
*594 TAP_TAPCELL_ROW_56_490
*595 TAP_TAPCELL_ROW_57_491
*596 TAP_TAPCELL_ROW_57_492
*597 TAP_TAPCELL_ROW_58_493
*598 TAP_TAPCELL_ROW_58_494
*599 TAP_TAPCELL_ROW_59_495
*600 TAP_TAPCELL_ROW_59_496
*601 TAP_TAPCELL_ROW_60_497
*602 TAP_TAPCELL_ROW_60_498
*603 TAP_TAPCELL_ROW_61_499
*604 TAP_TAPCELL_ROW_61_500
*605 TAP_TAPCELL_ROW_62_501
*606 TAP_TAPCELL_ROW_62_502
*607 TAP_TAPCELL_ROW_63_503
*608 TAP_TAPCELL_ROW_63_504
*609 TAP_TAPCELL_ROW_64_505
*610 TAP_TAPCELL_ROW_64_506
*611 TAP_TAPCELL_ROW_65_507
*612 TAP_TAPCELL_ROW_65_508
*613 TAP_TAPCELL_ROW_66_509
*614 TAP_TAPCELL_ROW_66_510
*615 TAP_TAPCELL_ROW_67_511
*616 TAP_TAPCELL_ROW_67_512
*617 TAP_TAPCELL_ROW_68_513
*618 TAP_TAPCELL_ROW_68_514
*619 TAP_TAPCELL_ROW_69_515
*620 TAP_TAPCELL_ROW_69_516
*621 TAP_TAPCELL_ROW_70_517
*622 TAP_TAPCELL_ROW_70_518
*623 TAP_TAPCELL_ROW_71_519
*624 TAP_TAPCELL_ROW_71_520
*625 TAP_TAPCELL_ROW_72_521
*626 TAP_TAPCELL_ROW_72_522
*627 TAP_TAPCELL_ROW_73_523
*628 TAP_TAPCELL_ROW_73_524
*629 TAP_TAPCELL_ROW_74_525
*630 TAP_TAPCELL_ROW_74_526
*631 TAP_TAPCELL_ROW_75_527
*632 TAP_TAPCELL_ROW_75_528
*633 TAP_TAPCELL_ROW_76_529
*634 TAP_TAPCELL_ROW_76_530
*635 TAP_TAPCELL_ROW_77_531
*636 TAP_TAPCELL_ROW_77_532
*637 TAP_TAPCELL_ROW_78_533
*638 TAP_TAPCELL_ROW_78_534
*639 TAP_TAPCELL_ROW_79_535
*640 TAP_TAPCELL_ROW_79_536
*641 TAP_TAPCELL_ROW_80_537
*642 TAP_TAPCELL_ROW_80_538
*643 TAP_TAPCELL_ROW_80_539
*644 TAP_TAPCELL_ROW_80_540
*645 TAP_TAPCELL_ROW_121_541
*646 TAP_TAPCELL_ROW_121_542
*647 TAP_TAPCELL_ROW_121_543
*648 TAP_TAPCELL_ROW_121_544
*649 TAP_TAPCELL_ROW_1_1_545
*650 TAP_TAPCELL_ROW_81_2_546
*651 TAP_TAPCELL_ROW_82_2_547
*652 TAP_TAPCELL_ROW_82_2_548
*653 TAP_TAPCELL_ROW_83_2_549
*654 TAP_TAPCELL_ROW_84_2_550
*655 TAP_TAPCELL_ROW_84_2_551
*656 TAP_TAPCELL_ROW_85_2_552
*657 TAP_TAPCELL_ROW_86_2_553
*658 TAP_TAPCELL_ROW_86_2_554
*659 TAP_TAPCELL_ROW_87_2_555
*660 TAP_TAPCELL_ROW_88_2_556
*661 TAP_TAPCELL_ROW_88_2_557
*662 TAP_TAPCELL_ROW_89_2_558
*663 TAP_TAPCELL_ROW_90_2_559
*664 TAP_TAPCELL_ROW_90_2_560
*665 TAP_TAPCELL_ROW_91_2_561
*666 TAP_TAPCELL_ROW_92_2_562
*667 TAP_TAPCELL_ROW_92_2_563
*668 TAP_TAPCELL_ROW_93_2_564
*669 TAP_TAPCELL_ROW_94_2_565
*670 TAP_TAPCELL_ROW_94_2_566
*671 TAP_TAPCELL_ROW_95_2_567
*672 TAP_TAPCELL_ROW_96_2_568
*673 TAP_TAPCELL_ROW_96_2_569
*674 TAP_TAPCELL_ROW_97_2_570
*675 TAP_TAPCELL_ROW_98_2_571
*676 TAP_TAPCELL_ROW_98_2_572
*677 TAP_TAPCELL_ROW_99_2_573
*678 TAP_TAPCELL_ROW_100_2_574
*679 TAP_TAPCELL_ROW_100_2_575
*680 TAP_TAPCELL_ROW_101_2_576
*681 TAP_TAPCELL_ROW_102_2_577
*682 TAP_TAPCELL_ROW_102_2_578
*683 TAP_TAPCELL_ROW_103_2_579
*684 TAP_TAPCELL_ROW_104_2_580
*685 TAP_TAPCELL_ROW_104_2_581
*686 TAP_TAPCELL_ROW_105_2_582
*687 TAP_TAPCELL_ROW_106_2_583
*688 TAP_TAPCELL_ROW_106_2_584
*689 TAP_TAPCELL_ROW_107_2_585
*690 TAP_TAPCELL_ROW_108_2_586
*691 TAP_TAPCELL_ROW_108_2_587
*692 TAP_TAPCELL_ROW_109_2_588
*693 TAP_TAPCELL_ROW_110_2_589
*694 TAP_TAPCELL_ROW_110_2_590
*695 TAP_TAPCELL_ROW_111_2_591
*696 TAP_TAPCELL_ROW_112_2_592
*697 TAP_TAPCELL_ROW_112_2_593
*698 TAP_TAPCELL_ROW_113_2_594
*699 TAP_TAPCELL_ROW_114_2_595
*700 TAP_TAPCELL_ROW_114_2_596
*701 TAP_TAPCELL_ROW_115_2_597
*702 TAP_TAPCELL_ROW_116_2_598
*703 TAP_TAPCELL_ROW_116_2_599
*704 TAP_TAPCELL_ROW_117_2_600
*705 TAP_TAPCELL_ROW_118_2_601
*706 TAP_TAPCELL_ROW_118_2_602
*707 TAP_TAPCELL_ROW_119_2_603
*708 TAP_TAPCELL_ROW_120_2_604
*709 TAP_TAPCELL_ROW_120_2_605
*710 input1
*711 input2
*712 input3
*713 input4
*714 input5
*715 input6
*716 input7
*717 input8
*718 input9
*719 input10
*720 input11
*721 input12
*722 input13
*723 input14
*724 input15
*725 input16
*726 input17
*727 input18
*728 input19
*729 input20
*730 input21
*731 input22
*732 input23
*733 input24
*734 input25
*735 input26
*736 input27
*737 input28
*738 input29
*739 input30
*740 input31
*741 input32
*742 input33
*743 input34
*744 output35
*745 output36
*746 ANTENNA_1
*747 ANTENNA_2
*748 ANTENNA_3
*749 ANTENNA_4
*750 FILLER_0_2
*751 FILLER_0_66
*752 FILLER_0_130
*753 FILLER_0_162
*754 FILLER_0_180
*755 FILLER_0_244
*756 FILLER_0_308
*757 FILLER_0_340
*758 FILLER_0_358
*759 FILLER_0_422
*760 FILLER_0_486
*761 FILLER_0_518
*762 FILLER_0_536
*763 FILLER_0_600
*764 FILLER_0_664
*765 FILLER_0_696
*766 FILLER_0_714
*767 FILLER_0_778
*768 FILLER_0_842
*769 FILLER_0_850
*770 FILLER_0_854
*771 FILLER_1_2
*772 FILLER_1_66
*773 FILLER_1_130
*774 FILLER_1_194
*775 FILLER_1_258
*776 FILLER_1_322
*777 FILLER_1_354
*778 FILLER_1_358
*779 FILLER_1_422
*780 FILLER_1_486
*781 FILLER_1_502
*782 FILLER_1_849
*783 FILLER_1_853
*784 FILLER_2_2
*785 FILLER_2_66
*786 FILLER_2_130
*787 FILLER_2_162
*788 FILLER_2_180
*789 FILLER_2_244
*790 FILLER_2_308
*791 FILLER_2_372
*792 FILLER_2_436
*793 FILLER_2_500
*794 FILLER_2_849
*795 FILLER_2_853
*796 FILLER_3_2
*797 FILLER_3_66
*798 FILLER_3_130
*799 FILLER_3_194
*800 FILLER_3_258
*801 FILLER_3_322
*802 FILLER_3_354
*803 FILLER_3_358
*804 FILLER_3_422
*805 FILLER_3_486
*806 FILLER_3_502
*807 FILLER_3_849
*808 FILLER_3_853
*809 FILLER_4_2
*810 FILLER_4_66
*811 FILLER_4_130
*812 FILLER_4_162
*813 FILLER_4_180
*814 FILLER_4_244
*815 FILLER_4_308
*816 FILLER_4_372
*817 FILLER_4_436
*818 FILLER_4_500
*819 FILLER_4_849
*820 FILLER_4_853
*821 FILLER_5_2
*822 FILLER_5_66
*823 FILLER_5_130
*824 FILLER_5_194
*825 FILLER_5_258
*826 FILLER_5_322
*827 FILLER_5_354
*828 FILLER_5_358
*829 FILLER_5_422
*830 FILLER_5_486
*831 FILLER_5_502
*832 FILLER_5_849
*833 FILLER_5_853
*834 FILLER_6_2
*835 FILLER_6_66
*836 FILLER_6_130
*837 FILLER_6_162
*838 FILLER_6_180
*839 FILLER_6_244
*840 FILLER_6_308
*841 FILLER_6_372
*842 FILLER_6_436
*843 FILLER_6_500
*844 FILLER_6_849
*845 FILLER_6_853
*846 FILLER_7_2
*847 FILLER_7_66
*848 FILLER_7_130
*849 FILLER_7_194
*850 FILLER_7_258
*851 FILLER_7_322
*852 FILLER_7_354
*853 FILLER_7_358
*854 FILLER_7_422
*855 FILLER_7_486
*856 FILLER_7_502
*857 FILLER_7_849
*858 FILLER_7_853
*859 FILLER_8_2
*860 FILLER_8_66
*861 FILLER_8_130
*862 FILLER_8_162
*863 FILLER_8_180
*864 FILLER_8_244
*865 FILLER_8_308
*866 FILLER_8_372
*867 FILLER_8_436
*868 FILLER_8_500
*869 FILLER_8_849
*870 FILLER_8_853
*871 FILLER_9_2
*872 FILLER_9_66
*873 FILLER_9_130
*874 FILLER_9_194
*875 FILLER_9_258
*876 FILLER_9_322
*877 FILLER_9_354
*878 FILLER_9_358
*879 FILLER_9_422
*880 FILLER_9_486
*881 FILLER_9_502
*882 FILLER_9_849
*883 FILLER_9_853
*884 FILLER_10_2
*885 FILLER_10_66
*886 FILLER_10_130
*887 FILLER_10_162
*888 FILLER_10_180
*889 FILLER_10_244
*890 FILLER_10_308
*891 FILLER_10_372
*892 FILLER_10_436
*893 FILLER_10_500
*894 FILLER_10_849
*895 FILLER_10_853
*896 FILLER_11_2
*897 FILLER_11_66
*898 FILLER_11_130
*899 FILLER_11_194
*900 FILLER_11_258
*901 FILLER_11_322
*902 FILLER_11_354
*903 FILLER_11_358
*904 FILLER_11_422
*905 FILLER_11_486
*906 FILLER_11_502
*907 FILLER_11_849
*908 FILLER_11_853
*909 FILLER_12_2
*910 FILLER_12_66
*911 FILLER_12_130
*912 FILLER_12_162
*913 FILLER_12_180
*914 FILLER_12_244
*915 FILLER_12_308
*916 FILLER_12_372
*917 FILLER_12_436
*918 FILLER_12_500
*919 FILLER_12_849
*920 FILLER_12_853
*921 FILLER_13_2
*922 FILLER_13_66
*923 FILLER_13_130
*924 FILLER_13_194
*925 FILLER_13_258
*926 FILLER_13_322
*927 FILLER_13_354
*928 FILLER_13_358
*929 FILLER_13_422
*930 FILLER_13_486
*931 FILLER_13_502
*932 FILLER_13_849
*933 FILLER_13_853
*934 FILLER_14_2
*935 FILLER_14_66
*936 FILLER_14_130
*937 FILLER_14_162
*938 FILLER_14_180
*939 FILLER_14_244
*940 FILLER_14_308
*941 FILLER_14_372
*942 FILLER_14_436
*943 FILLER_14_500
*944 FILLER_14_849
*945 FILLER_14_853
*946 FILLER_15_2
*947 FILLER_15_66
*948 FILLER_15_130
*949 FILLER_15_194
*950 FILLER_15_258
*951 FILLER_15_322
*952 FILLER_15_354
*953 FILLER_15_358
*954 FILLER_15_422
*955 FILLER_15_486
*956 FILLER_15_502
*957 FILLER_15_849
*958 FILLER_15_853
*959 FILLER_16_2
*960 FILLER_16_66
*961 FILLER_16_130
*962 FILLER_16_162
*963 FILLER_16_180
*964 FILLER_16_244
*965 FILLER_16_308
*966 FILLER_16_372
*967 FILLER_16_436
*968 FILLER_16_500
*969 FILLER_16_849
*970 FILLER_16_853
*971 FILLER_17_2
*972 FILLER_17_66
*973 FILLER_17_130
*974 FILLER_17_194
*975 FILLER_17_258
*976 FILLER_17_322
*977 FILLER_17_354
*978 FILLER_17_358
*979 FILLER_17_422
*980 FILLER_17_486
*981 FILLER_17_502
*982 FILLER_17_849
*983 FILLER_17_853
*984 FILLER_18_2
*985 FILLER_18_66
*986 FILLER_18_130
*987 FILLER_18_162
*988 FILLER_18_180
*989 FILLER_18_244
*990 FILLER_18_308
*991 FILLER_18_372
*992 FILLER_18_436
*993 FILLER_18_500
*994 FILLER_18_849
*995 FILLER_18_853
*996 FILLER_19_2
*997 FILLER_19_66
*998 FILLER_19_130
*999 FILLER_19_194
*1000 FILLER_19_258
*1001 FILLER_19_322
*1002 FILLER_19_354
*1003 FILLER_19_358
*1004 FILLER_19_422
*1005 FILLER_19_486
*1006 FILLER_19_502
*1007 FILLER_19_849
*1008 FILLER_19_853
*1009 FILLER_20_2
*1010 FILLER_20_66
*1011 FILLER_20_130
*1012 FILLER_20_162
*1013 FILLER_20_180
*1014 FILLER_20_244
*1015 FILLER_20_308
*1016 FILLER_20_372
*1017 FILLER_20_436
*1018 FILLER_20_500
*1019 FILLER_20_849
*1020 FILLER_20_853
*1021 FILLER_21_2
*1022 FILLER_21_66
*1023 FILLER_21_130
*1024 FILLER_21_194
*1025 FILLER_21_258
*1026 FILLER_21_322
*1027 FILLER_21_354
*1028 FILLER_21_358
*1029 FILLER_21_422
*1030 FILLER_21_486
*1031 FILLER_21_502
*1032 FILLER_21_849
*1033 FILLER_21_853
*1034 FILLER_22_2
*1035 FILLER_22_66
*1036 FILLER_22_130
*1037 FILLER_22_162
*1038 FILLER_22_180
*1039 FILLER_22_244
*1040 FILLER_22_308
*1041 FILLER_22_372
*1042 FILLER_22_436
*1043 FILLER_22_500
*1044 FILLER_22_849
*1045 FILLER_22_853
*1046 FILLER_23_2
*1047 FILLER_23_66
*1048 FILLER_23_130
*1049 FILLER_23_194
*1050 FILLER_23_258
*1051 FILLER_23_322
*1052 FILLER_23_354
*1053 FILLER_23_358
*1054 FILLER_23_422
*1055 FILLER_23_486
*1056 FILLER_23_502
*1057 FILLER_23_849
*1058 FILLER_23_853
*1059 FILLER_24_2
*1060 FILLER_24_66
*1061 FILLER_24_130
*1062 FILLER_24_162
*1063 FILLER_24_180
*1064 FILLER_24_244
*1065 FILLER_24_308
*1066 FILLER_24_372
*1067 FILLER_24_436
*1068 FILLER_24_500
*1069 FILLER_24_849
*1070 FILLER_24_853
*1071 FILLER_25_2
*1072 FILLER_25_66
*1073 FILLER_25_130
*1074 FILLER_25_194
*1075 FILLER_25_258
*1076 FILLER_25_322
*1077 FILLER_25_354
*1078 FILLER_25_358
*1079 FILLER_25_422
*1080 FILLER_25_486
*1081 FILLER_25_502
*1082 FILLER_25_849
*1083 FILLER_25_853
*1084 FILLER_26_2
*1085 FILLER_26_66
*1086 FILLER_26_130
*1087 FILLER_26_162
*1088 FILLER_26_180
*1089 FILLER_26_244
*1090 FILLER_26_308
*1091 FILLER_26_372
*1092 FILLER_26_436
*1093 FILLER_26_500
*1094 FILLER_26_849
*1095 FILLER_26_853
*1096 FILLER_27_2
*1097 FILLER_27_66
*1098 FILLER_27_130
*1099 FILLER_27_194
*1100 FILLER_27_258
*1101 FILLER_27_322
*1102 FILLER_27_354
*1103 FILLER_27_358
*1104 FILLER_27_422
*1105 FILLER_27_486
*1106 FILLER_27_502
*1107 FILLER_27_849
*1108 FILLER_27_853
*1109 FILLER_28_2
*1110 FILLER_28_66
*1111 FILLER_28_130
*1112 FILLER_28_162
*1113 FILLER_28_180
*1114 FILLER_28_244
*1115 FILLER_28_308
*1116 FILLER_28_372
*1117 FILLER_28_436
*1118 FILLER_28_500
*1119 FILLER_28_849
*1120 FILLER_28_853
*1121 FILLER_29_2
*1122 FILLER_29_66
*1123 FILLER_29_130
*1124 FILLER_29_194
*1125 FILLER_29_258
*1126 FILLER_29_322
*1127 FILLER_29_354
*1128 FILLER_29_358
*1129 FILLER_29_422
*1130 FILLER_29_486
*1131 FILLER_29_502
*1132 FILLER_29_849
*1133 FILLER_29_853
*1134 FILLER_30_2
*1135 FILLER_30_66
*1136 FILLER_30_130
*1137 FILLER_30_162
*1138 FILLER_30_180
*1139 FILLER_30_244
*1140 FILLER_30_308
*1141 FILLER_30_372
*1142 FILLER_30_436
*1143 FILLER_30_500
*1144 FILLER_30_849
*1145 FILLER_30_853
*1146 FILLER_31_2
*1147 FILLER_31_66
*1148 FILLER_31_130
*1149 FILLER_31_194
*1150 FILLER_31_258
*1151 FILLER_31_322
*1152 FILLER_31_354
*1153 FILLER_31_358
*1154 FILLER_31_422
*1155 FILLER_31_486
*1156 FILLER_31_502
*1157 FILLER_31_849
*1158 FILLER_31_853
*1159 FILLER_32_2
*1160 FILLER_32_66
*1161 FILLER_32_130
*1162 FILLER_32_162
*1163 FILLER_32_180
*1164 FILLER_32_244
*1165 FILLER_32_308
*1166 FILLER_32_372
*1167 FILLER_32_436
*1168 FILLER_32_500
*1169 FILLER_32_849
*1170 FILLER_32_853
*1171 FILLER_33_2
*1172 FILLER_33_66
*1173 FILLER_33_130
*1174 FILLER_33_194
*1175 FILLER_33_258
*1176 FILLER_33_322
*1177 FILLER_33_354
*1178 FILLER_33_358
*1179 FILLER_33_422
*1180 FILLER_33_486
*1181 FILLER_33_502
*1182 FILLER_33_849
*1183 FILLER_33_853
*1184 FILLER_34_2
*1185 FILLER_34_66
*1186 FILLER_34_130
*1187 FILLER_34_162
*1188 FILLER_34_180
*1189 FILLER_34_244
*1190 FILLER_34_308
*1191 FILLER_34_372
*1192 FILLER_34_436
*1193 FILLER_34_500
*1194 FILLER_34_849
*1195 FILLER_34_853
*1196 FILLER_35_2
*1197 FILLER_35_66
*1198 FILLER_35_130
*1199 FILLER_35_194
*1200 FILLER_35_258
*1201 FILLER_35_322
*1202 FILLER_35_354
*1203 FILLER_35_358
*1204 FILLER_35_422
*1205 FILLER_35_486
*1206 FILLER_35_502
*1207 FILLER_35_849
*1208 FILLER_35_853
*1209 FILLER_36_2
*1210 FILLER_36_66
*1211 FILLER_36_130
*1212 FILLER_36_162
*1213 FILLER_36_180
*1214 FILLER_36_244
*1215 FILLER_36_308
*1216 FILLER_36_372
*1217 FILLER_36_436